/*---------------------------------------------------------------------------*\
| =========                 |                                                 |
| \\      /  F ield         | OpenFOAM: The Open Source CFD Toolbox           |
|  \\    /   O peration     | Version:  2212                                  |
|   \\  /    A nd           | Website:  www.openfoam.com                      |
|    \\/     M anipulation  |                                                 |
\*---------------------------------------------------------------------------*/
Build  : _66908158ae-20221220 OPENFOAM=2212 version=v2212
Arch   : "LSB;label=32;scalar=64"
Exec   : simpleFoam
Date   : Mar 09 2023
Time   : 16:28:24
Host   : drownfish19-MacBookPro.lan
PID    : 56517
I/O    : uncollated
Case   : /Users/drownfish19/Documents/GitHub/Paddle/Airfoil/Deep-Flow-Prediction/data/OpenFOAM
nProcs : 1
trapFpe: Floating point exception trapping enabled (FOAM_SIGFPE).
fileModificationChecking : Monitoring run-time modified files using timeStampMaster (fileModificationSkew 5, maxFileModificationPolls 20)
allowSystemOperations : Allowing user-supplied system call operations

// * * * * * * * * * * * * * * * * * * * * * * * * * * * * * * * * * * * * * //
Create time

Create mesh for time = 0


SIMPLE: convergence criteria
    field p	 tolerance 1e-05
    field U	 tolerance 1e-05
    field nuTilda	 tolerance 1e-05

Reading field p

Reading field U

Reading/calculating face flux field phi

Selecting incompressible transport model Newtonian
Selecting turbulence model type RAS
Selecting RAS turbulence model SpalartAllmaras
Selecting patchDistMethod meshWave
ft2 term: inactive
RAS
{
    RASModel        SpalartAllmaras;
    turbulence      on;
    printCoeffs     on;
    sigmaNut        0.66666;
    kappa           0.41;
    Cb1             0.1355;
    Cb2             0.622;
    Cw2             0.3;
    Cw3             2;
    Cv1             7.1;
    Cs              0.3;
    ck              0.07;
    ft2             false;
    Ct3             1.2;
    Ct4             0.5;
}

No MRF models present

No finite volume options present

Starting time loop

--> FOAM Warning : 
    From void *Foam::dlLibraryTable::openLibrary(const Foam::fileName &, bool)
    in file db/dynamicLibrary/dlLibraryTable/dlLibraryTable.C at line 188
    Could not load "libsampling.so"
dlopen(libsampling.dylib, 0x0009): tried: 'libsampling.dylib' (no such file), '/System/Volumes/Preboot/Cryptexes/OSlibsampling.dylib' (no such file), '/usr/lib/libsampling.dylib' (no such file, not in dyld cache), 'libsampling.dylib' (no such file), '/usr/local/lib/libsampling.dylib' (no such file), '/usr/lib/libsampling.dylib' (no such file, not in dyld cache)
--> FOAM Warning : 
    From void Foam::cloudSet::calcSamples(DynamicList<Foam::point> &, DynamicList<Foam::label> &, DynamicList<Foam::label> &, DynamicList<Foam::label> &, DynamicList<Foam::scalar> &) const
    in file sampledSet/cloud/cloudSet.C at line 128
    For sample set cloud did not found 269 points out of 16384
Print missing points by setting the debug flag for cloud
Sampled set:
    cloud -> raw

Time = 1

smoothSolver:  Solving for Ux, Initial residual = 1, Final residual = 0.0431132, No Iterations 2
smoothSolver:  Solving for Uy, Initial residual = 1, Final residual = 0.0524862, No Iterations 2
GAMG:  Solving for p, Initial residual = 1, Final residual = 0.0992661, No Iterations 9
time step continuity errors : sum local = 0.0426126, global = 0.0122272, cumulative = 0.0122272
smoothSolver:  Solving for nuTilda, Initial residual = 1, Final residual = 0.0449356, No Iterations 2
ExecutionTime = 9.45 s  ClockTime = 9 s

Time = 2

smoothSolver:  Solving for Ux, Initial residual = 0.599153, Final residual = 0.0457727, No Iterations 4
smoothSolver:  Solving for Uy, Initial residual = 0.441673, Final residual = 0.0340464, No Iterations 4
GAMG:  Solving for p, Initial residual = 0.101296, Final residual = 0.00856269, No Iterations 4
time step continuity errors : sum local = 0.137739, global = -0.0188062, cumulative = -0.00657902
smoothSolver:  Solving for nuTilda, Initial residual = 0.103639, Final residual = 0.00212539, No Iterations 4
ExecutionTime = 9.47 s  ClockTime = 9 s

Time = 3

smoothSolver:  Solving for Ux, Initial residual = 0.238696, Final residual = 0.0183383, No Iterations 4
smoothSolver:  Solving for Uy, Initial residual = 0.117041, Final residual = 0.00906008, No Iterations 4
GAMG:  Solving for p, Initial residual = 0.107811, Final residual = 0.00831593, No Iterations 7
time step continuity errors : sum local = 0.117624, global = 0.0284114, cumulative = 0.0218324
smoothSolver:  Solving for nuTilda, Initial residual = 0.0357162, Final residual = 0.00133056, No Iterations 4
ExecutionTime = 9.49 s  ClockTime = 9 s

Time = 4

smoothSolver:  Solving for Ux, Initial residual = 0.040104, Final residual = 0.0023888, No Iterations 4
smoothSolver:  Solving for Uy, Initial residual = 0.0169258, Final residual = 0.00108833, No Iterations 4
GAMG:  Solving for p, Initial residual = 0.770331, Final residual = 0.0715263, No Iterations 5
time step continuity errors : sum local = 0.132513, global = 0.0161455, cumulative = 0.0379778
smoothSolver:  Solving for nuTilda, Initial residual = 0.020922, Final residual = 0.00100601, No Iterations 4
ExecutionTime = 9.52 s  ClockTime = 9 s

Time = 5

smoothSolver:  Solving for Ux, Initial residual = 0.239484, Final residual = 0.0183989, No Iterations 4
smoothSolver:  Solving for Uy, Initial residual = 0.0884297, Final residual = 0.0067465, No Iterations 4
GAMG:  Solving for p, Initial residual = 0.189813, Final residual = 0.0129131, No Iterations 4
time step continuity errors : sum local = 0.115887, global = 0.0184352, cumulative = 0.056413
smoothSolver:  Solving for nuTilda, Initial residual = 0.0158222, Final residual = 0.000835715, No Iterations 4
ExecutionTime = 9.54 s  ClockTime = 9 s

Time = 6

smoothSolver:  Solving for Ux, Initial residual = 0.286883, Final residual = 0.0222744, No Iterations 4
smoothSolver:  Solving for Uy, Initial residual = 0.104014, Final residual = 0.00804707, No Iterations 4
GAMG:  Solving for p, Initial residual = 0.17904, Final residual = 0.0159046, No Iterations 6
time step continuity errors : sum local = 0.113605, global = 0.0324003, cumulative = 0.0888133
smoothSolver:  Solving for nuTilda, Initial residual = 0.0127015, Final residual = 0.000718153, No Iterations 4
ExecutionTime = 9.56 s  ClockTime = 9 s

Time = 7

smoothSolver:  Solving for Ux, Initial residual = 0.0868026, Final residual = 0.00564408, No Iterations 4
smoothSolver:  Solving for Uy, Initial residual = 0.041375, Final residual = 0.0027903, No Iterations 4
GAMG:  Solving for p, Initial residual = 0.459745, Final residual = 0.0347907, No Iterations 6
time step continuity errors : sum local = 0.0759787, global = 0.0214899, cumulative = 0.110303
smoothSolver:  Solving for nuTilda, Initial residual = 0.0105667, Final residual = 0.00061829, No Iterations 4
ExecutionTime = 9.58 s  ClockTime = 9 s

Time = 8

smoothSolver:  Solving for Ux, Initial residual = 0.182583, Final residual = 0.013852, No Iterations 4
smoothSolver:  Solving for Uy, Initial residual = 0.0870011, Final residual = 0.00660071, No Iterations 4
GAMG:  Solving for p, Initial residual = 0.177814, Final residual = 0.0141625, No Iterations 4
time step continuity errors : sum local = 0.0937013, global = 0.0205297, cumulative = 0.130833
smoothSolver:  Solving for nuTilda, Initial residual = 0.00879682, Final residual = 0.000526961, No Iterations 4
ExecutionTime = 9.61 s  ClockTime = 9 s

Time = 9

smoothSolver:  Solving for Ux, Initial residual = 0.10615, Final residual = 0.00817162, No Iterations 4
smoothSolver:  Solving for Uy, Initial residual = 0.0425876, Final residual = 0.00329432, No Iterations 4
GAMG:  Solving for p, Initial residual = 0.140319, Final residual = 0.0106781, No Iterations 6
time step continuity errors : sum local = 0.0632074, global = 0.0148353, cumulative = 0.145668
smoothSolver:  Solving for nuTilda, Initial residual = 0.00757233, Final residual = 0.00046171, No Iterations 4
ExecutionTime = 9.63 s  ClockTime = 9 s

Time = 10

smoothSolver:  Solving for Ux, Initial residual = 0.0305993, Final residual = 0.00204257, No Iterations 4
smoothSolver:  Solving for Uy, Initial residual = 0.0155435, Final residual = 0.0010835, No Iterations 4
GAMG:  Solving for p, Initial residual = 0.34033, Final residual = 0.0262827, No Iterations 5
time step continuity errors : sum local = 0.0541082, global = -0.0140452, cumulative = 0.131623
smoothSolver:  Solving for nuTilda, Initial residual = 0.00677287, Final residual = 0.000423056, No Iterations 4
ExecutionTime = 9.65 s  ClockTime = 9 s

Time = 11

smoothSolver:  Solving for Ux, Initial residual = 0.0950245, Final residual = 0.00721073, No Iterations 4
smoothSolver:  Solving for Uy, Initial residual = 0.040882, Final residual = 0.00309019, No Iterations 4
GAMG:  Solving for p, Initial residual = 0.335422, Final residual = 0.02078, No Iterations 4
time step continuity errors : sum local = 0.0504075, global = -0.00384795, cumulative = 0.127775
smoothSolver:  Solving for nuTilda, Initial residual = 0.00621319, Final residual = 0.000399425, No Iterations 4
ExecutionTime = 9.66 s  ClockTime = 9 s

Time = 12

smoothSolver:  Solving for Ux, Initial residual = 0.0812147, Final residual = 0.00630148, No Iterations 4
smoothSolver:  Solving for Uy, Initial residual = 0.031616, Final residual = 0.00244615, No Iterations 4
GAMG:  Solving for p, Initial residual = 0.255942, Final residual = 0.0236813, No Iterations 5
time step continuity errors : sum local = 0.0525465, global = 0.007709, cumulative = 0.135484
smoothSolver:  Solving for nuTilda, Initial residual = 0.00576507, Final residual = 0.000378553, No Iterations 4
ExecutionTime = 9.68 s  ClockTime = 9 s

Time = 13

smoothSolver:  Solving for Ux, Initial residual = 0.039718, Final residual = 0.00271226, No Iterations 4
smoothSolver:  Solving for Uy, Initial residual = 0.0172558, Final residual = 0.0012244, No Iterations 4
GAMG:  Solving for p, Initial residual = 0.382078, Final residual = 0.0270768, No Iterations 5
time step continuity errors : sum local = 0.0332241, global = -0.00765778, cumulative = 0.127826
smoothSolver:  Solving for nuTilda, Initial residual = 0.00528199, Final residual = 0.000352505, No Iterations 4
ExecutionTime = 9.7 s  ClockTime = 9 s

Time = 14

smoothSolver:  Solving for Ux, Initial residual = 0.0684979, Final residual = 0.00508206, No Iterations 4
smoothSolver:  Solving for Uy, Initial residual = 0.0288428, Final residual = 0.00216242, No Iterations 4
GAMG:  Solving for p, Initial residual = 0.187353, Final residual = 0.011611, No Iterations 4
time step continuity errors : sum local = 0.0329294, global = -0.00211543, cumulative = 0.125711
smoothSolver:  Solving for nuTilda, Initial residual = 0.00481694, Final residual = 0.000324652, No Iterations 4
ExecutionTime = 9.73 s  ClockTime = 9 s

Time = 15

smoothSolver:  Solving for Ux, Initial residual = 0.0464782, Final residual = 0.00352852, No Iterations 4
smoothSolver:  Solving for Uy, Initial residual = 0.0162037, Final residual = 0.0012445, No Iterations 4
GAMG:  Solving for p, Initial residual = 0.129431, Final residual = 0.00889277, No Iterations 6
time step continuity errors : sum local = 0.0259288, global = -0.00738732, cumulative = 0.118324
smoothSolver:  Solving for nuTilda, Initial residual = 0.00446371, Final residual = 0.000302213, No Iterations 4
ExecutionTime = 9.75 s  ClockTime = 9 s

Time = 16

smoothSolver:  Solving for Ux, Initial residual = 0.0178653, Final residual = 0.00125968, No Iterations 4
smoothSolver:  Solving for Uy, Initial residual = 0.00979833, Final residual = 0.000704077, No Iterations 4
GAMG:  Solving for p, Initial residual = 0.172169, Final residual = 0.0131779, No Iterations 5
time step continuity errors : sum local = 0.02427, global = 0.00592646, cumulative = 0.12425
smoothSolver:  Solving for nuTilda, Initial residual = 0.00421569, Final residual = 0.000287398, No Iterations 4
ExecutionTime = 9.77 s  ClockTime = 9 s

Time = 17

smoothSolver:  Solving for Ux, Initial residual = 0.0333214, Final residual = 0.00251444, No Iterations 4
smoothSolver:  Solving for Uy, Initial residual = 0.0166207, Final residual = 0.00123531, No Iterations 4
GAMG:  Solving for p, Initial residual = 0.397763, Final residual = 0.025476, No Iterations 4
time step continuity errors : sum local = 0.0220147, global = 0.00158866, cumulative = 0.125839
smoothSolver:  Solving for nuTilda, Initial residual = 0.004045, Final residual = 0.00027751, No Iterations 4
ExecutionTime = 9.79 s  ClockTime = 9 s

Time = 18

smoothSolver:  Solving for Ux, Initial residual = 0.0283319, Final residual = 0.00214947, No Iterations 4
smoothSolver:  Solving for Uy, Initial residual = 0.0114342, Final residual = 0.000858606, No Iterations 4
GAMG:  Solving for p, Initial residual = 0.431306, Final residual = 0.0426363, No Iterations 5
time step continuity errors : sum local = 0.0250183, global = -0.00601228, cumulative = 0.119826
smoothSolver:  Solving for nuTilda, Initial residual = 0.00388295, Final residual = 0.0002677, No Iterations 4
ExecutionTime = 9.81 s  ClockTime = 9 s

Time = 19

smoothSolver:  Solving for Ux, Initial residual = 0.020927, Final residual = 0.00141796, No Iterations 4
smoothSolver:  Solving for Uy, Initial residual = 0.00840924, Final residual = 0.000596359, No Iterations 4
GAMG:  Solving for p, Initial residual = 0.199408, Final residual = 0.0189737, No Iterations 4
time step continuity errors : sum local = 0.0206261, global = -0.00427207, cumulative = 0.115554
smoothSolver:  Solving for nuTilda, Initial residual = 0.00369663, Final residual = 0.000255732, No Iterations 4
ExecutionTime = 9.84 s  ClockTime = 9 s

Time = 20

smoothSolver:  Solving for Ux, Initial residual = 0.0290995, Final residual = 0.00211022, No Iterations 4
smoothSolver:  Solving for Uy, Initial residual = 0.0113167, Final residual = 0.000830959, No Iterations 4
GAMG:  Solving for p, Initial residual = 0.13628, Final residual = 0.010292, No Iterations 4
time step continuity errors : sum local = 0.0176762, global = -0.0039198, cumulative = 0.111635
smoothSolver:  Solving for nuTilda, Initial residual = 0.00350708, Final residual = 0.000243225, No Iterations 4
ExecutionTime = 9.86 s  ClockTime = 10 s

Time = 21

smoothSolver:  Solving for Ux, Initial residual = 0.0234634, Final residual = 0.0017501, No Iterations 4
smoothSolver:  Solving for Uy, Initial residual = 0.00769238, Final residual = 0.000570822, No Iterations 4
GAMG:  Solving for p, Initial residual = 0.0942894, Final residual = 0.00697613, No Iterations 6
time step continuity errors : sum local = 0.0134498, global = -0.00372038, cumulative = 0.107914
smoothSolver:  Solving for nuTilda, Initial residual = 0.00335176, Final residual = 0.000232601, No Iterations 4
ExecutionTime = 9.88 s  ClockTime = 10 s

Time = 22

smoothSolver:  Solving for Ux, Initial residual = 0.0126063, Final residual = 0.000894084, No Iterations 4
smoothSolver:  Solving for Uy, Initial residual = 0.00616043, Final residual = 0.00044206, No Iterations 4
GAMG:  Solving for p, Initial residual = 0.0928847, Final residual = 0.00699017, No Iterations 5
time step continuity errors : sum local = 0.0118092, global = 0.00275218, cumulative = 0.110666
smoothSolver:  Solving for nuTilda, Initial residual = 0.00324082, Final residual = 0.000224875, No Iterations 4
ExecutionTime = 9.9 s  ClockTime = 10 s

Time = 23

smoothSolver:  Solving for Ux, Initial residual = 0.0144724, Final residual = 0.00100473, No Iterations 4
smoothSolver:  Solving for Uy, Initial residual = 0.00789237, Final residual = 0.000573928, No Iterations 4
GAMG:  Solving for p, Initial residual = 0.12481, Final residual = 0.00704719, No Iterations 4
time step continuity errors : sum local = 0.00912443, global = -0.000954128, cumulative = 0.109712
smoothSolver:  Solving for nuTilda, Initial residual = 0.00315621, Final residual = 0.000219076, No Iterations 4
ExecutionTime = 9.92 s  ClockTime = 10 s

Time = 24

smoothSolver:  Solving for Ux, Initial residual = 0.0146948, Final residual = 0.00102059, No Iterations 4
smoothSolver:  Solving for Uy, Initial residual = 0.00608071, Final residual = 0.000430578, No Iterations 4
GAMG:  Solving for p, Initial residual = 0.122008, Final residual = 0.0109782, No Iterations 4
time step continuity errors : sum local = 0.0118826, global = 9.28937e-05, cumulative = 0.109805
smoothSolver:  Solving for nuTilda, Initial residual = 0.00307434, Final residual = 0.000213476, No Iterations 4
ExecutionTime = 9.95 s  ClockTime = 10 s

Time = 25

smoothSolver:  Solving for Ux, Initial residual = 0.0135237, Final residual = 0.00089469, No Iterations 4
smoothSolver:  Solving for Uy, Initial residual = 0.00517854, Final residual = 0.000352156, No Iterations 4
GAMG:  Solving for p, Initial residual = 0.101458, Final residual = 0.00826268, No Iterations 4
time step continuity errors : sum local = 0.00953642, global = -0.00202454, cumulative = 0.107781
smoothSolver:  Solving for nuTilda, Initial residual = 0.00298371, Final residual = 0.00020717, No Iterations 4
ExecutionTime = 9.96 s  ClockTime = 10 s

Time = 26

smoothSolver:  Solving for Ux, Initial residual = 0.0158603, Final residual = 0.00110781, No Iterations 4
smoothSolver:  Solving for Uy, Initial residual = 0.00585937, Final residual = 0.000409339, No Iterations 4
GAMG:  Solving for p, Initial residual = 0.0846402, Final residual = 0.00545637, No Iterations 4
time step continuity errors : sum local = 0.00764352, global = -0.00146122, cumulative = 0.106319
smoothSolver:  Solving for nuTilda, Initial residual = 0.00288948, Final residual = 0.000200292, No Iterations 4
ExecutionTime = 9.98 s  ClockTime = 10 s

Time = 27

smoothSolver:  Solving for Ux, Initial residual = 0.0143875, Final residual = 0.00103374, No Iterations 4
smoothSolver:  Solving for Uy, Initial residual = 0.00488877, Final residual = 0.000341912, No Iterations 4
GAMG:  Solving for p, Initial residual = 0.0644215, Final residual = 0.0050615, No Iterations 5
time step continuity errors : sum local = 0.00790636, global = 0.00211757, cumulative = 0.108437
smoothSolver:  Solving for nuTilda, Initial residual = 0.00280918, Final residual = 0.00019402, No Iterations 4
ExecutionTime = 10 s  ClockTime = 10 s

Time = 28

smoothSolver:  Solving for Ux, Initial residual = 0.0111899, Final residual = 0.000782065, No Iterations 4
smoothSolver:  Solving for Uy, Initial residual = 0.00458997, Final residual = 0.000320983, No Iterations 4
GAMG:  Solving for p, Initial residual = 0.0568746, Final residual = 0.00446732, No Iterations 4
time step continuity errors : sum local = 0.00702407, global = -0.00169775, cumulative = 0.106739
smoothSolver:  Solving for nuTilda, Initial residual = 0.00274376, Final residual = 0.000188818, No Iterations 4
ExecutionTime = 10.02 s  ClockTime = 10 s

Time = 29

smoothSolver:  Solving for Ux, Initial residual = 0.0104406, Final residual = 0.000684921, No Iterations 4
smoothSolver:  Solving for Uy, Initial residual = 0.00506671, Final residual = 0.000354089, No Iterations 4
GAMG:  Solving for p, Initial residual = 0.0603253, Final residual = 0.00350987, No Iterations 4
time step continuity errors : sum local = 0.0051629, global = -0.00108852, cumulative = 0.105651
smoothSolver:  Solving for nuTilda, Initial residual = 0.00269081, Final residual = 0.000184466, No Iterations 4
ExecutionTime = 10.04 s  ClockTime = 10 s

Time = 30

smoothSolver:  Solving for Ux, Initial residual = 0.0105423, Final residual = 0.000682605, No Iterations 4
smoothSolver:  Solving for Uy, Initial residual = 0.0044828, Final residual = 0.000304497, No Iterations 4
GAMG:  Solving for p, Initial residual = 0.0578942, Final residual = 0.00535075, No Iterations 4
time step continuity errors : sum local = 0.00728311, global = -0.00186776, cumulative = 0.103783
smoothSolver:  Solving for nuTilda, Initial residual = 0.00264105, Final residual = 0.000180454, No Iterations 4
ExecutionTime = 10.07 s  ClockTime = 10 s

Time = 31

smoothSolver:  Solving for Ux, Initial residual = 0.0105834, Final residual = 0.000683717, No Iterations 4
smoothSolver:  Solving for Uy, Initial residual = 0.00407551, Final residual = 0.000269125, No Iterations 4
GAMG:  Solving for p, Initial residual = 0.0549449, Final residual = 0.00394624, No Iterations 5
time step continuity errors : sum local = 0.00519074, global = 0.00135184, cumulative = 0.105135
smoothSolver:  Solving for nuTilda, Initial residual = 0.0025887, Final residual = 0.000176213, No Iterations 4
ExecutionTime = 10.09 s  ClockTime = 10 s

Time = 32

smoothSolver:  Solving for Ux, Initial residual = 0.0113132, Final residual = 0.000758443, No Iterations 4
smoothSolver:  Solving for Uy, Initial residual = 0.00414444, Final residual = 0.000275682, No Iterations 4
GAMG:  Solving for p, Initial residual = 0.052102, Final residual = 0.00504754, No Iterations 3
time step continuity errors : sum local = 0.00687059, global = 0.000937266, cumulative = 0.106072
smoothSolver:  Solving for nuTilda, Initial residual = 0.00253532, Final residual = 0.000171814, No Iterations 4
ExecutionTime = 10.1 s  ClockTime = 10 s

Time = 33

smoothSolver:  Solving for Ux, Initial residual = 0.0110812, Final residual = 0.000762867, No Iterations 4
smoothSolver:  Solving for Uy, Initial residual = 0.00394023, Final residual = 0.000264091, No Iterations 4
GAMG:  Solving for p, Initial residual = 0.0464578, Final residual = 0.00457016, No Iterations 3
time step continuity errors : sum local = 0.0065855, global = 0.00150931, cumulative = 0.107581
smoothSolver:  Solving for nuTilda, Initial residual = 0.00248703, Final residual = 0.00016746, No Iterations 4
ExecutionTime = 10.12 s  ClockTime = 10 s

Time = 34

smoothSolver:  Solving for Ux, Initial residual = 0.0102647, Final residual = 0.00070545, No Iterations 4
smoothSolver:  Solving for Uy, Initial residual = 0.00383528, Final residual = 0.000258128, No Iterations 4
GAMG:  Solving for p, Initial residual = 0.0411551, Final residual = 0.0026548, No Iterations 4
time step continuity errors : sum local = 0.00403634, global = -0.000958775, cumulative = 0.106623
smoothSolver:  Solving for nuTilda, Initial residual = 0.00244397, Final residual = 0.000163546, No Iterations 4
ExecutionTime = 10.14 s  ClockTime = 10 s

Time = 35

smoothSolver:  Solving for Ux, Initial residual = 0.00963939, Final residual = 0.000641393, No Iterations 4
smoothSolver:  Solving for Uy, Initial residual = 0.00406699, Final residual = 0.000273701, No Iterations 4
GAMG:  Solving for p, Initial residual = 0.0384758, Final residual = 0.00338637, No Iterations 3
time step continuity errors : sum local = 0.00524688, global = 0.000963017, cumulative = 0.107586
smoothSolver:  Solving for nuTilda, Initial residual = 0.00240544, Final residual = 0.000159939, No Iterations 4
ExecutionTime = 10.17 s  ClockTime = 10 s

Time = 36

smoothSolver:  Solving for Ux, Initial residual = 0.00937847, Final residual = 0.000609317, No Iterations 4
smoothSolver:  Solving for Uy, Initial residual = 0.00392842, Final residual = 0.000261865, No Iterations 4
GAMG:  Solving for p, Initial residual = 0.0374865, Final residual = 0.00340794, No Iterations 3
time step continuity errors : sum local = 0.00515871, global = 0.00116723, cumulative = 0.108753
smoothSolver:  Solving for nuTilda, Initial residual = 0.00237175, Final residual = 0.000156703, No Iterations 4
ExecutionTime = 10.18 s  ClockTime = 10 s

Time = 37

smoothSolver:  Solving for Ux, Initial residual = 0.00930637, Final residual = 0.000600293, No Iterations 4
smoothSolver:  Solving for Uy, Initial residual = 0.00371519, Final residual = 0.000243765, No Iterations 4
GAMG:  Solving for p, Initial residual = 0.0367838, Final residual = 0.00365952, No Iterations 3
time step continuity errors : sum local = 0.00533355, global = 0.00119167, cumulative = 0.109944
smoothSolver:  Solving for nuTilda, Initial residual = 0.00233697, Final residual = 0.000153737, No Iterations 4
ExecutionTime = 10.2 s  ClockTime = 10 s

Time = 38

smoothSolver:  Solving for Ux, Initial residual = 0.00939952, Final residual = 0.000613775, No Iterations 4
smoothSolver:  Solving for Uy, Initial residual = 0.00360409, Final residual = 0.000234864, No Iterations 4
GAMG:  Solving for p, Initial residual = 0.0366974, Final residual = 0.00336637, No Iterations 3
time step continuity errors : sum local = 0.0048152, global = 0.000901103, cumulative = 0.110846
smoothSolver:  Solving for nuTilda, Initial residual = 0.00230364, Final residual = 0.000150995, No Iterations 4
ExecutionTime = 10.22 s  ClockTime = 10 s

Time = 39

smoothSolver:  Solving for Ux, Initial residual = 0.00945139, Final residual = 0.000632019, No Iterations 4
smoothSolver:  Solving for Uy, Initial residual = 0.00350317, Final residual = 0.000227915, No Iterations 4
GAMG:  Solving for p, Initial residual = 0.0353613, Final residual = 0.00253771, No Iterations 3
time step continuity errors : sum local = 0.0037034, global = 0.000751153, cumulative = 0.111597
smoothSolver:  Solving for nuTilda, Initial residual = 0.00227147, Final residual = 0.000148359, No Iterations 4
ExecutionTime = 10.23 s  ClockTime = 10 s

Time = 40

smoothSolver:  Solving for Ux, Initial residual = 0.00925352, Final residual = 0.000625946, No Iterations 4
smoothSolver:  Solving for Uy, Initial residual = 0.00345461, Final residual = 0.000225777, No Iterations 4
GAMG:  Solving for p, Initial residual = 0.032794, Final residual = 0.00243113, No Iterations 3
time step continuity errors : sum local = 0.00367621, global = 0.00102039, cumulative = 0.112617
smoothSolver:  Solving for nuTilda, Initial residual = 0.00224057, Final residual = 0.000145808, No Iterations 4
ExecutionTime = 10.26 s  ClockTime = 10 s

Time = 41

smoothSolver:  Solving for Ux, Initial residual = 0.00894467, Final residual = 0.000602092, No Iterations 4
smoothSolver:  Solving for Uy, Initial residual = 0.00352521, Final residual = 0.000232447, No Iterations 4
GAMG:  Solving for p, Initial residual = 0.030514, Final residual = 0.00230398, No Iterations 3
time step continuity errors : sum local = 0.00359596, global = 0.000922898, cumulative = 0.11354
smoothSolver:  Solving for nuTilda, Initial residual = 0.00221314, Final residual = 0.000143354, No Iterations 4
ExecutionTime = 10.28 s  ClockTime = 10 s

Time = 42

smoothSolver:  Solving for Ux, Initial residual = 0.00864148, Final residual = 0.000572123, No Iterations 4
smoothSolver:  Solving for Uy, Initial residual = 0.00355602, Final residual = 0.00023438, No Iterations 4
GAMG:  Solving for p, Initial residual = 0.0292069, Final residual = 0.00179465, No Iterations 3
time step continuity errors : sum local = 0.00283906, global = 0.000540317, cumulative = 0.11408
smoothSolver:  Solving for nuTilda, Initial residual = 0.00218837, Final residual = 0.000140814, No Iterations 4
ExecutionTime = 10.3 s  ClockTime = 10 s

Time = 43

smoothSolver:  Solving for Ux, Initial residual = 0.0084135, Final residual = 0.000549503, No Iterations 4
smoothSolver:  Solving for Uy, Initial residual = 0.00349726, Final residual = 0.000228755, No Iterations 4
GAMG:  Solving for p, Initial residual = 0.0284547, Final residual = 0.00165396, No Iterations 3
time step continuity errors : sum local = 0.0026074, global = 0.000563227, cumulative = 0.114644
smoothSolver:  Solving for nuTilda, Initial residual = 0.00216267, Final residual = 0.000138043, No Iterations 4
ExecutionTime = 10.31 s  ClockTime = 10 s

Time = 44

smoothSolver:  Solving for Ux, Initial residual = 0.00827719, Final residual = 0.000538738, No Iterations 4
smoothSolver:  Solving for Uy, Initial residual = 0.0033892, Final residual = 0.000219654, No Iterations 4
GAMG:  Solving for p, Initial residual = 0.028032, Final residual = 0.00212788, No Iterations 3
time step continuity errors : sum local = 0.00331304, global = 0.000761671, cumulative = 0.115405
smoothSolver:  Solving for nuTilda, Initial residual = 0.00213564, Final residual = 0.000135287, No Iterations 4
ExecutionTime = 10.33 s  ClockTime = 10 s

Time = 45

smoothSolver:  Solving for Ux, Initial residual = 0.00822579, Final residual = 0.00053933, No Iterations 4
smoothSolver:  Solving for Uy, Initial residual = 0.00328714, Final residual = 0.000211867, No Iterations 4
GAMG:  Solving for p, Initial residual = 0.0279194, Final residual = 0.00217952, No Iterations 3
time step continuity errors : sum local = 0.00336168, global = 0.000704318, cumulative = 0.11611
smoothSolver:  Solving for nuTilda, Initial residual = 0.00211011, Final residual = 0.000132732, No Iterations 4
ExecutionTime = 10.36 s  ClockTime = 10 s

Time = 46

smoothSolver:  Solving for Ux, Initial residual = 0.00818293, Final residual = 0.000543055, No Iterations 4
smoothSolver:  Solving for Uy, Initial residual = 0.00322069, Final residual = 0.000207531, No Iterations 4
GAMG:  Solving for p, Initial residual = 0.0275834, Final residual = 0.00267194, No Iterations 2
time step continuity errors : sum local = 0.00414477, global = -0.000452037, cumulative = 0.115658
smoothSolver:  Solving for nuTilda, Initial residual = 0.00208452, Final residual = 0.000130163, No Iterations 4
ExecutionTime = 10.37 s  ClockTime = 10 s

Time = 47

smoothSolver:  Solving for Ux, Initial residual = 0.00803625, Final residual = 0.000535828, No Iterations 4
smoothSolver:  Solving for Uy, Initial residual = 0.00317989, Final residual = 0.000204605, No Iterations 4
GAMG:  Solving for p, Initial residual = 0.0267536, Final residual = 0.00240783, No Iterations 2
time step continuity errors : sum local = 0.00379575, global = -0.000339838, cumulative = 0.115318
smoothSolver:  Solving for nuTilda, Initial residual = 0.00205784, Final residual = 0.000127587, No Iterations 4
ExecutionTime = 10.39 s  ClockTime = 10 s

Time = 48

smoothSolver:  Solving for Ux, Initial residual = 0.00786666, Final residual = 0.000524528, No Iterations 4
smoothSolver:  Solving for Uy, Initial residual = 0.00316285, Final residual = 0.000204349, No Iterations 4
GAMG:  Solving for p, Initial residual = 0.0258442, Final residual = 0.0023665, No Iterations 2
time step continuity errors : sum local = 0.00379734, global = -0.000262464, cumulative = 0.115055
smoothSolver:  Solving for nuTilda, Initial residual = 0.00203047, Final residual = 0.00012502, No Iterations 4
ExecutionTime = 10.4 s  ClockTime = 10 s

Time = 49

smoothSolver:  Solving for Ux, Initial residual = 0.00768135, Final residual = 0.00050943, No Iterations 4
smoothSolver:  Solving for Uy, Initial residual = 0.00316138, Final residual = 0.000205283, No Iterations 4
GAMG:  Solving for p, Initial residual = 0.0250157, Final residual = 0.00217075, No Iterations 2
time step continuity errors : sum local = 0.0035436, global = -0.000134557, cumulative = 0.114921
smoothSolver:  Solving for nuTilda, Initial residual = 0.00200334, Final residual = 0.000122695, No Iterations 4
ExecutionTime = 10.42 s  ClockTime = 10 s

Time = 50

smoothSolver:  Solving for Ux, Initial residual = 0.00749213, Final residual = 0.000493171, No Iterations 4
smoothSolver:  Solving for Uy, Initial residual = 0.00314122, Final residual = 0.000204599, No Iterations 4
GAMG:  Solving for p, Initial residual = 0.0245785, Final residual = 0.00182623, No Iterations 2
time step continuity errors : sum local = 0.00301608, global = -4.99069e-05, cumulative = 0.114871
smoothSolver:  Solving for nuTilda, Initial residual = 0.00197678, Final residual = 0.000120285, No Iterations 4
ExecutionTime = 10.44 s  ClockTime = 10 s

Time = 51

smoothSolver:  Solving for Ux, Initial residual = 0.00731706, Final residual = 0.000478287, No Iterations 4
smoothSolver:  Solving for Uy, Initial residual = 0.0030893, Final residual = 0.000201132, No Iterations 4
GAMG:  Solving for p, Initial residual = 0.0241737, Final residual = 0.00173766, No Iterations 2
time step continuity errors : sum local = 0.00288688, global = -0.000100656, cumulative = 0.11477
smoothSolver:  Solving for nuTilda, Initial residual = 0.00195192, Final residual = 0.00011808, No Iterations 4
ExecutionTime = 10.46 s  ClockTime = 10 s

Time = 52

smoothSolver:  Solving for Ux, Initial residual = 0.00716773, Final residual = 0.000466415, No Iterations 4
smoothSolver:  Solving for Uy, Initial residual = 0.00301528, Final residual = 0.000195568, No Iterations 4
GAMG:  Solving for p, Initial residual = 0.0236722, Final residual = 0.00198114, No Iterations 2
time step continuity errors : sum local = 0.00330088, global = -0.00041307, cumulative = 0.114357
smoothSolver:  Solving for nuTilda, Initial residual = 0.00192499, Final residual = 0.000116015, No Iterations 4
ExecutionTime = 10.48 s  ClockTime = 10 s

Time = 53

smoothSolver:  Solving for Ux, Initial residual = 0.00705977, Final residual = 0.000458732, No Iterations 4
smoothSolver:  Solving for Uy, Initial residual = 0.00292493, Final residual = 0.000188446, No Iterations 4
GAMG:  Solving for p, Initial residual = 0.0233311, Final residual = 0.00149537, No Iterations 3
time step continuity errors : sum local = 0.0024926, global = 0.000499238, cumulative = 0.114856
smoothSolver:  Solving for nuTilda, Initial residual = 0.00189657, Final residual = 0.000113968, No Iterations 4
ExecutionTime = 10.49 s  ClockTime = 10 s

Time = 54

smoothSolver:  Solving for Ux, Initial residual = 0.00700164, Final residual = 0.000457139, No Iterations 4
smoothSolver:  Solving for Uy, Initial residual = 0.00284659, Final residual = 0.000183082, No Iterations 4
GAMG:  Solving for p, Initial residual = 0.0231542, Final residual = 0.00175704, No Iterations 2
time step continuity errors : sum local = 0.00291382, global = -0.000390027, cumulative = 0.114466
smoothSolver:  Solving for nuTilda, Initial residual = 0.00186549, Final residual = 0.000111891, No Iterations 4
ExecutionTime = 10.51 s  ClockTime = 10 s

Time = 55

smoothSolver:  Solving for Ux, Initial residual = 0.00688156, Final residual = 0.000449699, No Iterations 4
smoothSolver:  Solving for Uy, Initial residual = 0.00277945, Final residual = 0.000178381, No Iterations 4
GAMG:  Solving for p, Initial residual = 0.0226864, Final residual = 0.0014484, No Iterations 2
time step continuity errors : sum local = 0.0024172, global = -0.000234116, cumulative = 0.114232
smoothSolver:  Solving for nuTilda, Initial residual = 0.00183729, Final residual = 0.000109895, No Iterations 4
ExecutionTime = 10.53 s  ClockTime = 10 s

Time = 56

smoothSolver:  Solving for Ux, Initial residual = 0.00675463, Final residual = 0.000440862, No Iterations 4
smoothSolver:  Solving for Uy, Initial residual = 0.00272449, Final residual = 0.000175121, No Iterations 4
GAMG:  Solving for p, Initial residual = 0.0219943, Final residual = 0.00134855, No Iterations 2
time step continuity errors : sum local = 0.00227138, global = -0.000166232, cumulative = 0.114066
smoothSolver:  Solving for nuTilda, Initial residual = 0.00181252, Final residual = 0.000107921, No Iterations 4
ExecutionTime = 10.54 s  ClockTime = 10 s

Time = 57

smoothSolver:  Solving for Ux, Initial residual = 0.00662421, Final residual = 0.00043019, No Iterations 4
smoothSolver:  Solving for Uy, Initial residual = 0.00267839, Final residual = 0.000172771, No Iterations 4
GAMG:  Solving for p, Initial residual = 0.0212843, Final residual = 0.00129729, No Iterations 2
time step continuity errors : sum local = 0.00220973, global = -0.00011524, cumulative = 0.113951
smoothSolver:  Solving for nuTilda, Initial residual = 0.00178489, Final residual = 0.00010611, No Iterations 4
ExecutionTime = 10.57 s  ClockTime = 10 s

Time = 58

smoothSolver:  Solving for Ux, Initial residual = 0.00648392, Final residual = 0.000418897, No Iterations 4
smoothSolver:  Solving for Uy, Initial residual = 0.00263457, Final residual = 0.000170411, No Iterations 4
GAMG:  Solving for p, Initial residual = 0.0206213, Final residual = 0.00121989, No Iterations 2
time step continuity errors : sum local = 0.00210307, global = -5.68244e-05, cumulative = 0.113894
smoothSolver:  Solving for nuTilda, Initial residual = 0.00175513, Final residual = 0.000104133, No Iterations 4
ExecutionTime = 10.58 s  ClockTime = 10 s

Time = 59

smoothSolver:  Solving for Ux, Initial residual = 0.00634294, Final residual = 0.000408219, No Iterations 4
smoothSolver:  Solving for Uy, Initial residual = 0.00258172, Final residual = 0.000167038, No Iterations 4
GAMG:  Solving for p, Initial residual = 0.0199659, Final residual = 0.00110571, No Iterations 2
time step continuity errors : sum local = 0.00192665, global = 3.12564e-06, cumulative = 0.113897
smoothSolver:  Solving for nuTilda, Initial residual = 0.00172431, Final residual = 0.000101966, No Iterations 4
ExecutionTime = 10.6 s  ClockTime = 10 s

Time = 60

smoothSolver:  Solving for Ux, Initial residual = 0.00621802, Final residual = 0.00039861, No Iterations 4
smoothSolver:  Solving for Uy, Initial residual = 0.00251616, Final residual = 0.000162601, No Iterations 4
GAMG:  Solving for p, Initial residual = 0.0192462, Final residual = 0.00101332, No Iterations 2
time step continuity errors : sum local = 0.00177958, global = 1.65427e-05, cumulative = 0.113913
smoothSolver:  Solving for nuTilda, Initial residual = 0.0016971, Final residual = 9.99722e-05, No Iterations 4
ExecutionTime = 10.61 s  ClockTime = 10 s

Time = 61

smoothSolver:  Solving for Ux, Initial residual = 0.00610463, Final residual = 0.000390639, No Iterations 4
smoothSolver:  Solving for Uy, Initial residual = 0.00244063, Final residual = 0.000157334, No Iterations 4
GAMG:  Solving for p, Initial residual = 0.0186896, Final residual = 0.00103178, No Iterations 2
time step continuity errors : sum local = 0.0018219, global = -6.43108e-05, cumulative = 0.113849
smoothSolver:  Solving for nuTilda, Initial residual = 0.00167023, Final residual = 9.79524e-05, No Iterations 4
ExecutionTime = 10.63 s  ClockTime = 10 s

Time = 62

smoothSolver:  Solving for Ux, Initial residual = 0.00599663, Final residual = 0.000384099, No Iterations 4
smoothSolver:  Solving for Uy, Initial residual = 0.00235731, Final residual = 0.000151603, No Iterations 4
GAMG:  Solving for p, Initial residual = 0.0182658, Final residual = 0.00114538, No Iterations 2
time step continuity errors : sum local = 0.00203012, global = -0.000189741, cumulative = 0.113659
smoothSolver:  Solving for nuTilda, Initial residual = 0.00164037, Final residual = 9.5817e-05, No Iterations 4
ExecutionTime = 10.65 s  ClockTime = 10 s

Time = 63

smoothSolver:  Solving for Ux, Initial residual = 0.00589234, Final residual = 0.000378358, No Iterations 4
smoothSolver:  Solving for Uy, Initial residual = 0.00227512, Final residual = 0.000146076, No Iterations 4
GAMG:  Solving for p, Initial residual = 0.0179216, Final residual = 0.0011532, No Iterations 2
time step continuity errors : sum local = 0.0020488, global = -0.000232354, cumulative = 0.113427
smoothSolver:  Solving for nuTilda, Initial residual = 0.00161301, Final residual = 9.35323e-05, No Iterations 4
ExecutionTime = 10.67 s  ClockTime = 10 s

Time = 64

smoothSolver:  Solving for Ux, Initial residual = 0.00578572, Final residual = 0.00037273, No Iterations 4
smoothSolver:  Solving for Uy, Initial residual = 0.00220062, Final residual = 0.000141483, No Iterations 4
GAMG:  Solving for p, Initial residual = 0.0176202, Final residual = 0.000954034, No Iterations 2
time step continuity errors : sum local = 0.00169818, global = -0.00018905, cumulative = 0.113238
smoothSolver:  Solving for nuTilda, Initial residual = 0.00158577, Final residual = 9.13232e-05, No Iterations 4
ExecutionTime = 10.69 s  ClockTime = 10 s

Time = 65

smoothSolver:  Solving for Ux, Initial residual = 0.00567351, Final residual = 0.000366616, No Iterations 4
smoothSolver:  Solving for Uy, Initial residual = 0.00213319, Final residual = 0.000137792, No Iterations 4
GAMG:  Solving for p, Initial residual = 0.017223, Final residual = 0.000734718, No Iterations 2
time step continuity errors : sum local = 0.00131164, global = -0.00016299, cumulative = 0.113075
smoothSolver:  Solving for nuTilda, Initial residual = 0.00155382, Final residual = 8.94342e-05, No Iterations 4
ExecutionTime = 10.7 s  ClockTime = 10 s

Time = 66

smoothSolver:  Solving for Ux, Initial residual = 0.00555702, Final residual = 0.00035914, No Iterations 4
smoothSolver:  Solving for Uy, Initial residual = 0.00207016, Final residual = 0.000134298, No Iterations 4
GAMG:  Solving for p, Initial residual = 0.0167387, Final residual = 0.000666286, No Iterations 2
time step continuity errors : sum local = 0.00119458, global = -0.000139954, cumulative = 0.112935
smoothSolver:  Solving for nuTilda, Initial residual = 0.00152485, Final residual = 8.75721e-05, No Iterations 4
ExecutionTime = 10.72 s  ClockTime = 10 s

Time = 67

smoothSolver:  Solving for Ux, Initial residual = 0.00543371, Final residual = 0.000350574, No Iterations 4
smoothSolver:  Solving for Uy, Initial residual = 0.00200724, Final residual = 0.000130892, No Iterations 4
GAMG:  Solving for p, Initial residual = 0.0162354, Final residual = 0.000688702, No Iterations 2
time step continuity errors : sum local = 0.00124145, global = -0.000107242, cumulative = 0.112828
smoothSolver:  Solving for nuTilda, Initial residual = 0.00150007, Final residual = 8.57602e-05, No Iterations 4
ExecutionTime = 10.73 s  ClockTime = 10 s

Time = 68

smoothSolver:  Solving for Ux, Initial residual = 0.00530466, Final residual = 0.000341155, No Iterations 4
smoothSolver:  Solving for Uy, Initial residual = 0.00194112, Final residual = 0.000127229, No Iterations 4
GAMG:  Solving for p, Initial residual = 0.0156854, Final residual = 0.000720769, No Iterations 2
time step continuity errors : sum local = 0.001308, global = -6.04174e-05, cumulative = 0.112767
smoothSolver:  Solving for nuTilda, Initial residual = 0.00147484, Final residual = 8.39325e-05, No Iterations 4
ExecutionTime = 10.76 s  ClockTime = 10 s

Time = 69

smoothSolver:  Solving for Ux, Initial residual = 0.00517426, Final residual = 0.00033149, No Iterations 4
smoothSolver:  Solving for Uy, Initial residual = 0.00187387, Final residual = 0.000123074, No Iterations 4
GAMG:  Solving for p, Initial residual = 0.015127, Final residual = 0.000692364, No Iterations 2
time step continuity errors : sum local = 0.00126585, global = 5.79312e-06, cumulative = 0.112773
smoothSolver:  Solving for nuTilda, Initial residual = 0.00144751, Final residual = 8.21072e-05, No Iterations 4
ExecutionTime = 10.78 s  ClockTime = 10 s

Time = 70

smoothSolver:  Solving for Ux, Initial residual = 0.00504621, Final residual = 0.000322271, No Iterations 4
smoothSolver:  Solving for Uy, Initial residual = 0.00180416, Final residual = 0.000118697, No Iterations 4
GAMG:  Solving for p, Initial residual = 0.0145341, Final residual = 0.0014077, No Iterations 1
time step continuity errors : sum local = 0.00259187, global = 0.00026733, cumulative = 0.113041
smoothSolver:  Solving for nuTilda, Initial residual = 0.00141944, Final residual = 8.04415e-05, No Iterations 4
ExecutionTime = 10.79 s  ClockTime = 10 s

Time = 71

smoothSolver:  Solving for Ux, Initial residual = 0.00491461, Final residual = 0.000313424, No Iterations 4
smoothSolver:  Solving for Uy, Initial residual = 0.00174136, Final residual = 0.000115128, No Iterations 4
GAMG:  Solving for p, Initial residual = 0.0141616, Final residual = 0.00076341, No Iterations 2
time step continuity errors : sum local = 0.00140947, global = 2.04532e-05, cumulative = 0.113061
smoothSolver:  Solving for nuTilda, Initial residual = 0.00139078, Final residual = 7.92599e-05, No Iterations 4
ExecutionTime = 10.81 s  ClockTime = 10 s

Time = 72

smoothSolver:  Solving for Ux, Initial residual = 0.00479569, Final residual = 0.000305843, No Iterations 4
smoothSolver:  Solving for Uy, Initial residual = 0.00166234, Final residual = 0.000109949, No Iterations 4
GAMG:  Solving for p, Initial residual = 0.0134676, Final residual = 0.000755444, No Iterations 2
time step continuity errors : sum local = 0.00140314, global = -2.3727e-05, cumulative = 0.113037
smoothSolver:  Solving for nuTilda, Initial residual = 0.00136793, Final residual = 7.83466e-05, No Iterations 4
ExecutionTime = 10.82 s  ClockTime = 10 s

Time = 73

smoothSolver:  Solving for Ux, Initial residual = 0.0046797, Final residual = 0.00029854, No Iterations 4
smoothSolver:  Solving for Uy, Initial residual = 0.00159143, Final residual = 0.000105127, No Iterations 4
GAMG:  Solving for p, Initial residual = 0.0130116, Final residual = 0.000694504, No Iterations 2
time step continuity errors : sum local = 0.00129716, global = -6.31626e-05, cumulative = 0.112974
smoothSolver:  Solving for nuTilda, Initial residual = 0.0013465, Final residual = 7.76524e-05, No Iterations 4
ExecutionTime = 10.85 s  ClockTime = 11 s

Time = 74

smoothSolver:  Solving for Ux, Initial residual = 0.00456032, Final residual = 0.00029097, No Iterations 4
smoothSolver:  Solving for Uy, Initial residual = 0.00152774, Final residual = 0.000101149, No Iterations 4
GAMG:  Solving for p, Initial residual = 0.0124828, Final residual = 0.00120288, No Iterations 1
time step continuity errors : sum local = 0.00225686, global = 7.89085e-05, cumulative = 0.113053
smoothSolver:  Solving for nuTilda, Initial residual = 0.00132236, Final residual = 7.68112e-05, No Iterations 4
ExecutionTime = 10.86 s  ClockTime = 11 s

Time = 75

smoothSolver:  Solving for Ux, Initial residual = 0.00443, Final residual = 0.000282171, No Iterations 4
smoothSolver:  Solving for Uy, Initial residual = 0.00147803, Final residual = 9.83982e-05, No Iterations 4
GAMG:  Solving for p, Initial residual = 0.0119291, Final residual = 0.000668482, No Iterations 2
time step continuity errors : sum local = 0.00125671, global = -0.000175896, cumulative = 0.112877
smoothSolver:  Solving for nuTilda, Initial residual = 0.0012976, Final residual = 7.59365e-05, No Iterations 4
ExecutionTime = 10.88 s  ClockTime = 11 s

Time = 76

smoothSolver:  Solving for Ux, Initial residual = 0.00430619, Final residual = 0.000274241, No Iterations 4
smoothSolver:  Solving for Uy, Initial residual = 0.00142311, Final residual = 9.5114e-05, No Iterations 4
GAMG:  Solving for p, Initial residual = 0.0112392, Final residual = 0.000583114, No Iterations 2
time step continuity errors : sum local = 0.00109987, global = -0.000179757, cumulative = 0.112697
smoothSolver:  Solving for nuTilda, Initial residual = 0.0012773, Final residual = 7.49428e-05, No Iterations 4
ExecutionTime = 10.89 s  ClockTime = 11 s

Time = 77

smoothSolver:  Solving for Ux, Initial residual = 0.00418601, Final residual = 0.000266502, No Iterations 4
smoothSolver:  Solving for Uy, Initial residual = 0.00137259, Final residual = 9.20067e-05, No Iterations 4
GAMG:  Solving for p, Initial residual = 0.0107302, Final residual = 0.00106366, No Iterations 1
time step continuity errors : sum local = 0.00201261, global = -1.57982e-05, cumulative = 0.112682
smoothSolver:  Solving for nuTilda, Initial residual = 0.00126027, Final residual = 7.38494e-05, No Iterations 4
ExecutionTime = 10.91 s  ClockTime = 11 s

Time = 78

smoothSolver:  Solving for Ux, Initial residual = 0.00406453, Final residual = 0.000258374, No Iterations 4
smoothSolver:  Solving for Uy, Initial residual = 0.00133301, Final residual = 8.96572e-05, No Iterations 4
GAMG:  Solving for p, Initial residual = 0.0102917, Final residual = 0.000565759, No Iterations 2
time step continuity errors : sum local = 0.00107255, global = -0.000164821, cumulative = 0.112517
smoothSolver:  Solving for nuTilda, Initial residual = 0.00124068, Final residual = 7.26245e-05, No Iterations 4
ExecutionTime = 10.93 s  ClockTime = 11 s

Time = 79

smoothSolver:  Solving for Ux, Initial residual = 0.00394761, Final residual = 0.000250502, No Iterations 4
smoothSolver:  Solving for Uy, Initial residual = 0.0012804, Final residual = 8.61814e-05, No Iterations 4
GAMG:  Solving for p, Initial residual = 0.00966082, Final residual = 0.00053513, No Iterations 2
time step continuity errors : sum local = 0.00101885, global = -0.000106087, cumulative = 0.112411
smoothSolver:  Solving for nuTilda, Initial residual = 0.00122063, Final residual = 7.13311e-05, No Iterations 4
ExecutionTime = 10.95 s  ClockTime = 11 s

Time = 80

smoothSolver:  Solving for Ux, Initial residual = 0.0038326, Final residual = 0.000242768, No Iterations 4
smoothSolver:  Solving for Uy, Initial residual = 0.00122944, Final residual = 8.30017e-05, No Iterations 4
GAMG:  Solving for p, Initial residual = 0.00924647, Final residual = 0.000922114, No Iterations 1
time step continuity errors : sum local = 0.00176398, global = 0.000144237, cumulative = 0.112555
smoothSolver:  Solving for nuTilda, Initial residual = 0.00120193, Final residual = 7.00016e-05, No Iterations 4
ExecutionTime = 10.96 s  ClockTime = 11 s

Time = 81

smoothSolver:  Solving for Ux, Initial residual = 0.00371709, Final residual = 0.000235339, No Iterations 4
smoothSolver:  Solving for Uy, Initial residual = 0.00119556, Final residual = 8.12361e-05, No Iterations 4
GAMG:  Solving for p, Initial residual = 0.00893152, Final residual = 0.000579918, No Iterations 2
time step continuity errors : sum local = 0.00111187, global = 8.28369e-06, cumulative = 0.112563
smoothSolver:  Solving for nuTilda, Initial residual = 0.00118351, Final residual = 6.87023e-05, No Iterations 4
ExecutionTime = 10.98 s  ClockTime = 11 s

Time = 82

smoothSolver:  Solving for Ux, Initial residual = 0.00361142, Final residual = 0.00022839, No Iterations 4
smoothSolver:  Solving for Uy, Initial residual = 0.00114792, Final residual = 7.81807e-05, No Iterations 4
GAMG:  Solving for p, Initial residual = 0.00845386, Final residual = 0.000517082, No Iterations 2
time step continuity errors : sum local = 0.000997143, global = 5.98464e-05, cumulative = 0.112623
smoothSolver:  Solving for nuTilda, Initial residual = 0.001165, Final residual = 6.74186e-05, No Iterations 4
ExecutionTime = 11 s  ClockTime = 11 s

Time = 83

smoothSolver:  Solving for Ux, Initial residual = 0.00351191, Final residual = 0.00022228, No Iterations 4
smoothSolver:  Solving for Uy, Initial residual = 0.00110597, Final residual = 7.56475e-05, No Iterations 4
GAMG:  Solving for p, Initial residual = 0.00818546, Final residual = 0.000790952, No Iterations 1
time step continuity errors : sum local = 0.00153347, global = 0.000239998, cumulative = 0.112863
smoothSolver:  Solving for nuTilda, Initial residual = 0.00114587, Final residual = 6.61227e-05, No Iterations 4
ExecutionTime = 11.02 s  ClockTime = 11 s

Time = 84

smoothSolver:  Solving for Ux, Initial residual = 0.00340918, Final residual = 0.000215936, No Iterations 4
smoothSolver:  Solving for Uy, Initial residual = 0.00107953, Final residual = 7.43348e-05, No Iterations 4
GAMG:  Solving for p, Initial residual = 0.00801756, Final residual = 0.000441461, No Iterations 2
time step continuity errors : sum local = 0.000857793, global = 7.014e-05, cumulative = 0.112933
smoothSolver:  Solving for nuTilda, Initial residual = 0.00112624, Final residual = 6.48282e-05, No Iterations 4
ExecutionTime = 11.04 s  ClockTime = 11 s

Time = 85

smoothSolver:  Solving for Ux, Initial residual = 0.00331647, Final residual = 0.000210371, No Iterations 4
smoothSolver:  Solving for Uy, Initial residual = 0.00104619, Final residual = 7.23609e-05, No Iterations 4
GAMG:  Solving for p, Initial residual = 0.00771376, Final residual = 0.000417572, No Iterations 2
time step continuity errors : sum local = 0.000815279, global = 2.23342e-05, cumulative = 0.112955
smoothSolver:  Solving for nuTilda, Initial residual = 0.00110625, Final residual = 6.35646e-05, No Iterations 4
ExecutionTime = 11.05 s  ClockTime = 11 s

Time = 86

smoothSolver:  Solving for Ux, Initial residual = 0.00322763, Final residual = 0.000205057, No Iterations 4
smoothSolver:  Solving for Uy, Initial residual = 0.00101736, Final residual = 7.06757e-05, No Iterations 4
GAMG:  Solving for p, Initial residual = 0.00755578, Final residual = 0.000717877, No Iterations 1
time step continuity errors : sum local = 0.00140799, global = 0.000133, cumulative = 0.113088
smoothSolver:  Solving for nuTilda, Initial residual = 0.00108718, Final residual = 6.23531e-05, No Iterations 4
ExecutionTime = 11.07 s  ClockTime = 11 s

Time = 87

smoothSolver:  Solving for Ux, Initial residual = 0.0031375, Final residual = 0.000199453, No Iterations 4
smoothSolver:  Solving for Uy, Initial residual = 0.000996878, Final residual = 6.95971e-05, No Iterations 4
GAMG:  Solving for p, Initial residual = 0.00745822, Final residual = 0.000448845, No Iterations 2
time step continuity errors : sum local = 0.000882201, global = -8.16919e-05, cumulative = 0.113007
smoothSolver:  Solving for nuTilda, Initial residual = 0.00106889, Final residual = 6.12067e-05, No Iterations 4
ExecutionTime = 11.08 s  ClockTime = 11 s

Time = 88

smoothSolver:  Solving for Ux, Initial residual = 0.00305748, Final residual = 0.000194593, No Iterations 4
smoothSolver:  Solving for Uy, Initial residual = 0.000962008, Final residual = 6.7227e-05, No Iterations 4
GAMG:  Solving for p, Initial residual = 0.00726812, Final residual = 0.000389932, No Iterations 2
time step continuity errors : sum local = 0.000769729, global = -8.19736e-05, cumulative = 0.112925
smoothSolver:  Solving for nuTilda, Initial residual = 0.00105183, Final residual = 6.01695e-05, No Iterations 4
ExecutionTime = 11.11 s  ClockTime = 11 s

Time = 89

smoothSolver:  Solving for Ux, Initial residual = 0.0029812, Final residual = 0.000189911, No Iterations 4
smoothSolver:  Solving for Uy, Initial residual = 0.000929351, Final residual = 6.49918e-05, No Iterations 4
GAMG:  Solving for p, Initial residual = 0.00718471, Final residual = 0.000652286, No Iterations 1
time step continuity errors : sum local = 0.00129231, global = -1.33134e-05, cumulative = 0.112912
smoothSolver:  Solving for nuTilda, Initial residual = 0.00103546, Final residual = 5.92295e-05, No Iterations 4
ExecutionTime = 11.12 s  ClockTime = 11 s

Time = 90

smoothSolver:  Solving for Ux, Initial residual = 0.0029031, Final residual = 0.000184952, No Iterations 4
smoothSolver:  Solving for Uy, Initial residual = 0.000912086, Final residual = 6.39482e-05, No Iterations 4
GAMG:  Solving for p, Initial residual = 0.00713448, Final residual = 0.00034293, No Iterations 2
time step continuity errors : sum local = 0.000680682, global = -5.68894e-05, cumulative = 0.112855
smoothSolver:  Solving for nuTilda, Initial residual = 0.00101954, Final residual = 5.83579e-05, No Iterations 4
ExecutionTime = 11.14 s  ClockTime = 11 s

Time = 91

smoothSolver:  Solving for Ux, Initial residual = 0.00283151, Final residual = 0.000180317, No Iterations 4
smoothSolver:  Solving for Uy, Initial residual = 0.000884657, Final residual = 6.20108e-05, No Iterations 4
GAMG:  Solving for p, Initial residual = 0.00700349, Final residual = 0.000667801, No Iterations 1
time step continuity errors : sum local = 0.00132965, global = 5.922e-05, cumulative = 0.112914
smoothSolver:  Solving for nuTilda, Initial residual = 0.00100464, Final residual = 5.75544e-05, No Iterations 4
ExecutionTime = 11.15 s  ClockTime = 11 s

Time = 92

smoothSolver:  Solving for Ux, Initial residual = 0.00275942, Final residual = 0.000175684, No Iterations 4
smoothSolver:  Solving for Uy, Initial residual = 0.000869834, Final residual = 6.10502e-05, No Iterations 4
GAMG:  Solving for p, Initial residual = 0.0069976, Final residual = 0.000401642, No Iterations 2
time step continuity errors : sum local = 0.000801321, global = -2.02513e-05, cumulative = 0.112894
smoothSolver:  Solving for nuTilda, Initial residual = 0.000990695, Final residual = 5.68114e-05, No Iterations 4
ExecutionTime = 11.17 s  ClockTime = 11 s

Time = 93

smoothSolver:  Solving for Ux, Initial residual = 0.00269442, Final residual = 0.000171334, No Iterations 4
smoothSolver:  Solving for Uy, Initial residual = 0.000844392, Final residual = 5.91313e-05, No Iterations 4
GAMG:  Solving for p, Initial residual = 0.00692157, Final residual = 0.000679362, No Iterations 1
time step continuity errors : sum local = 0.00136094, global = 0.000159732, cumulative = 0.113053
smoothSolver:  Solving for nuTilda, Initial residual = 0.000977568, Final residual = 5.61156e-05, No Iterations 4
ExecutionTime = 11.18 s  ClockTime = 11 s

Time = 94

smoothSolver:  Solving for Ux, Initial residual = 0.00262756, Final residual = 0.000167026, No Iterations 4
smoothSolver:  Solving for Uy, Initial residual = 0.000832402, Final residual = 5.83382e-05, No Iterations 4
GAMG:  Solving for p, Initial residual = 0.00689435, Final residual = 0.000420252, No Iterations 2
time step continuity errors : sum local = 0.000843796, global = 2.56866e-05, cumulative = 0.113079
smoothSolver:  Solving for nuTilda, Initial residual = 0.000965624, Final residual = 5.54509e-05, No Iterations 4
ExecutionTime = 11.21 s  ClockTime = 11 s

Time = 95

smoothSolver:  Solving for Ux, Initial residual = 0.00256836, Final residual = 0.000163229, No Iterations 4
smoothSolver:  Solving for Uy, Initial residual = 0.000811831, Final residual = 5.67284e-05, No Iterations 4
GAMG:  Solving for p, Initial residual = 0.00681078, Final residual = 0.000619828, No Iterations 1
time step continuity errors : sum local = 0.00125049, global = 0.000162991, cumulative = 0.113242
smoothSolver:  Solving for nuTilda, Initial residual = 0.0009544, Final residual = 5.48258e-05, No Iterations 4
ExecutionTime = 11.22 s  ClockTime = 11 s

Time = 96

smoothSolver:  Solving for Ux, Initial residual = 0.00250498, Final residual = 0.000159162, No Iterations 4
smoothSolver:  Solving for Uy, Initial residual = 0.00080202, Final residual = 5.6054e-05, No Iterations 4
GAMG:  Solving for p, Initial residual = 0.00676311, Final residual = 0.000656395, No Iterations 1
time step continuity errors : sum local = 0.00132718, global = 0.000170182, cumulative = 0.113412
smoothSolver:  Solving for nuTilda, Initial residual = 0.000943837, Final residual = 5.42439e-05, No Iterations 4
ExecutionTime = 11.24 s  ClockTime = 11 s

Time = 97

smoothSolver:  Solving for Ux, Initial residual = 0.0024438, Final residual = 0.000155228, No Iterations 4
smoothSolver:  Solving for Uy, Initial residual = 0.000792289, Final residual = 5.53177e-05, No Iterations 4
GAMG:  Solving for p, Initial residual = 0.00670798, Final residual = 0.000403536, No Iterations 2
time step continuity errors : sum local = 0.00081788, global = 5.41791e-05, cumulative = 0.113466
smoothSolver:  Solving for nuTilda, Initial residual = 0.000933723, Final residual = 5.3703e-05, No Iterations 4
ExecutionTime = 11.25 s  ClockTime = 11 s

Time = 98

smoothSolver:  Solving for Ux, Initial residual = 0.00239003, Final residual = 0.000151851, No Iterations 4
smoothSolver:  Solving for Uy, Initial residual = 0.000776642, Final residual = 5.41322e-05, No Iterations 4
GAMG:  Solving for p, Initial residual = 0.00663043, Final residual = 0.000620305, No Iterations 1
time step continuity errors : sum local = 0.0012635, global = 0.000127772, cumulative = 0.113594
smoothSolver:  Solving for nuTilda, Initial residual = 0.000923941, Final residual = 5.3164e-05, No Iterations 4
ExecutionTime = 11.27 s  ClockTime = 11 s

Time = 99

smoothSolver:  Solving for Ux, Initial residual = 0.00233223, Final residual = 0.000148116, No Iterations 4
smoothSolver:  Solving for Uy, Initial residual = 0.000767213, Final residual = 5.34467e-05, No Iterations 4
GAMG:  Solving for p, Initial residual = 0.00659829, Final residual = 0.000653346, No Iterations 1
time step continuity errors : sum local = 0.00133407, global = 9.51825e-05, cumulative = 0.113689
smoothSolver:  Solving for nuTilda, Initial residual = 0.000914661, Final residual = 5.26327e-05, No Iterations 4
ExecutionTime = 11.29 s  ClockTime = 11 s

Time = 100

smoothSolver:  Solving for Ux, Initial residual = 0.00227656, Final residual = 0.00014451, No Iterations 4
smoothSolver:  Solving for Uy, Initial residual = 0.000756232, Final residual = 5.25892e-05, No Iterations 4
GAMG:  Solving for p, Initial residual = 0.00654196, Final residual = 0.000371182, No Iterations 2
time step continuity errors : sum local = 0.000759896, global = 1.91229e-06, cumulative = 0.113691
smoothSolver:  Solving for nuTilda, Initial residual = 0.000905211, Final residual = 5.21219e-05, No Iterations 4
ExecutionTime = 11.31 s  ClockTime = 11 s

Time = 101

smoothSolver:  Solving for Ux, Initial residual = 0.00222818, Final residual = 0.000141432, No Iterations 4
smoothSolver:  Solving for Uy, Initial residual = 0.000734819, Final residual = 5.09205e-05, No Iterations 4
GAMG:  Solving for p, Initial residual = 0.00645784, Final residual = 0.000562711, No Iterations 1
time step continuity errors : sum local = 0.00115757, global = 2.65959e-05, cumulative = 0.113718
smoothSolver:  Solving for nuTilda, Initial residual = 0.000896128, Final residual = 5.16307e-05, No Iterations 4
ExecutionTime = 11.32 s  ClockTime = 11 s

Time = 102

smoothSolver:  Solving for Ux, Initial residual = 0.00217466, Final residual = 0.000138003, No Iterations 4
smoothSolver:  Solving for Uy, Initial residual = 0.00072448, Final residual = 5.00975e-05, No Iterations 4
GAMG:  Solving for p, Initial residual = 0.00640789, Final residual = 0.000577449, No Iterations 1
time step continuity errors : sum local = 0.0011904, global = 4.47269e-06, cumulative = 0.113722
smoothSolver:  Solving for nuTilda, Initial residual = 0.000887758, Final residual = 5.11489e-05, No Iterations 4
ExecutionTime = 11.34 s  ClockTime = 11 s

Time = 103

smoothSolver:  Solving for Ux, Initial residual = 0.00212298, Final residual = 0.000134667, No Iterations 4
smoothSolver:  Solving for Uy, Initial residual = 0.00071413, Final residual = 4.92362e-05, No Iterations 4
GAMG:  Solving for p, Initial residual = 0.00634758, Final residual = 0.000625699, No Iterations 1
time step continuity errors : sum local = 0.00129244, global = -3.49129e-06, cumulative = 0.113719
smoothSolver:  Solving for nuTilda, Initial residual = 0.000879488, Final residual = 5.06676e-05, No Iterations 4
ExecutionTime = 11.35 s  ClockTime = 11 s

Time = 104

smoothSolver:  Solving for Ux, Initial residual = 0.00207336, Final residual = 0.000131468, No Iterations 4
smoothSolver:  Solving for Uy, Initial residual = 0.00070316, Final residual = 4.83086e-05, No Iterations 4
GAMG:  Solving for p, Initial residual = 0.0062962, Final residual = 0.00035183, No Iterations 2
time step continuity errors : sum local = 0.000728269, global = -1.65275e-06, cumulative = 0.113717
smoothSolver:  Solving for nuTilda, Initial residual = 0.000871363, Final residual = 5.01733e-05, No Iterations 4
ExecutionTime = 11.37 s  ClockTime = 11 s

Time = 105

smoothSolver:  Solving for Ux, Initial residual = 0.00202966, Final residual = 0.000128632, No Iterations 4
smoothSolver:  Solving for Uy, Initial residual = 0.000686551, Final residual = 4.6915e-05, No Iterations 4
GAMG:  Solving for p, Initial residual = 0.0062347, Final residual = 0.000563808, No Iterations 1
time step continuity errors : sum local = 0.00117118, global = 1.14155e-05, cumulative = 0.113729
smoothSolver:  Solving for nuTilda, Initial residual = 0.000862896, Final residual = 4.96862e-05, No Iterations 4
ExecutionTime = 11.39 s  ClockTime = 11 s

Time = 106

smoothSolver:  Solving for Ux, Initial residual = 0.00198173, Final residual = 0.000125565, No Iterations 4
smoothSolver:  Solving for Uy, Initial residual = 0.000678672, Final residual = 4.62436e-05, No Iterations 4
GAMG:  Solving for p, Initial residual = 0.00619005, Final residual = 0.000572268, No Iterations 1
time step continuity errors : sum local = 0.001191, global = 2.68664e-05, cumulative = 0.113755
smoothSolver:  Solving for nuTilda, Initial residual = 0.000854777, Final residual = 4.9215e-05, No Iterations 4
ExecutionTime = 11.41 s  ClockTime = 11 s

Time = 107

smoothSolver:  Solving for Ux, Initial residual = 0.00193515, Final residual = 0.000122586, No Iterations 4
smoothSolver:  Solving for Uy, Initial residual = 0.000671653, Final residual = 4.56435e-05, No Iterations 4
GAMG:  Solving for p, Initial residual = 0.00612685, Final residual = 0.000612356, No Iterations 1
time step continuity errors : sum local = 0.00127682, global = 4.13511e-05, cumulative = 0.113797
smoothSolver:  Solving for nuTilda, Initial residual = 0.000846582, Final residual = 4.87335e-05, No Iterations 4
ExecutionTime = 11.42 s  ClockTime = 11 s

Time = 108

smoothSolver:  Solving for Ux, Initial residual = 0.00189087, Final residual = 0.000119765, No Iterations 4
smoothSolver:  Solving for Uy, Initial residual = 0.000665375, Final residual = 4.5102e-05, No Iterations 4
GAMG:  Solving for p, Initial residual = 0.00607144, Final residual = 0.000356167, No Iterations 2
time step continuity errors : sum local = 0.00074415, global = 4.85831e-05, cumulative = 0.113845
smoothSolver:  Solving for nuTilda, Initial residual = 0.00083843, Final residual = 4.8249e-05, No Iterations 4
ExecutionTime = 11.44 s  ClockTime = 11 s

Time = 109

smoothSolver:  Solving for Ux, Initial residual = 0.00185537, Final residual = 0.000117558, No Iterations 4
smoothSolver:  Solving for Uy, Initial residual = 0.00066109, Final residual = 4.47192e-05, No Iterations 4
GAMG:  Solving for p, Initial residual = 0.00602452, Final residual = 0.00053083, No Iterations 1
time step continuity errors : sum local = 0.00111296, global = 4.77943e-05, cumulative = 0.113893
smoothSolver:  Solving for nuTilda, Initial residual = 0.000830197, Final residual = 4.77571e-05, No Iterations 4
ExecutionTime = 11.45 s  ClockTime = 11 s

Time = 110

smoothSolver:  Solving for Ux, Initial residual = 0.00181396, Final residual = 0.000114932, No Iterations 4
smoothSolver:  Solving for Uy, Initial residual = 0.000655475, Final residual = 4.42531e-05, No Iterations 4
GAMG:  Solving for p, Initial residual = 0.00598007, Final residual = 0.000533839, No Iterations 1
time step continuity errors : sum local = 0.00112133, global = 3.78956e-05, cumulative = 0.113931
smoothSolver:  Solving for nuTilda, Initial residual = 0.000821818, Final residual = 4.72814e-05, No Iterations 4
ExecutionTime = 11.48 s  ClockTime = 11 s

Time = 111

smoothSolver:  Solving for Ux, Initial residual = 0.0017734, Final residual = 0.000112351, No Iterations 4
smoothSolver:  Solving for Uy, Initial residual = 0.000649388, Final residual = 4.37624e-05, No Iterations 4
GAMG:  Solving for p, Initial residual = 0.00592402, Final residual = 0.000570577, No Iterations 1
time step continuity errors : sum local = 0.00120068, global = 1.98397e-05, cumulative = 0.113951
smoothSolver:  Solving for nuTilda, Initial residual = 0.000813248, Final residual = 4.67974e-05, No Iterations 4
ExecutionTime = 11.49 s  ClockTime = 11 s

Time = 112

smoothSolver:  Solving for Ux, Initial residual = 0.00173453, Final residual = 0.00010989, No Iterations 4
smoothSolver:  Solving for Uy, Initial residual = 0.000642867, Final residual = 4.32422e-05, No Iterations 4
GAMG:  Solving for p, Initial residual = 0.0058815, Final residual = 0.000315939, No Iterations 2
time step continuity errors : sum local = 0.000666147, global = 4.193e-05, cumulative = 0.113993
smoothSolver:  Solving for nuTilda, Initial residual = 0.000804625, Final residual = 4.63219e-05, No Iterations 4
ExecutionTime = 11.51 s  ClockTime = 11 s

Time = 113

smoothSolver:  Solving for Ux, Initial residual = 0.00170398, Final residual = 0.000108035, No Iterations 4
smoothSolver:  Solving for Uy, Initial residual = 0.000635962, Final residual = 4.27403e-05, No Iterations 4
GAMG:  Solving for p, Initial residual = 0.00582822, Final residual = 0.00050991, No Iterations 1
time step continuity errors : sum local = 0.00107889, global = 4.77852e-06, cumulative = 0.113998
smoothSolver:  Solving for nuTilda, Initial residual = 0.000796107, Final residual = 4.58608e-05, No Iterations 4
ExecutionTime = 11.52 s  ClockTime = 11 s

Time = 114

smoothSolver:  Solving for Ux, Initial residual = 0.00166705, Final residual = 0.00010575, No Iterations 4
smoothSolver:  Solving for Uy, Initial residual = 0.000628968, Final residual = 4.21916e-05, No Iterations 4
GAMG:  Solving for p, Initial residual = 0.00578446, Final residual = 0.000520271, No Iterations 1
time step continuity errors : sum local = 0.00110289, global = -2.79612e-06, cumulative = 0.113995
smoothSolver:  Solving for nuTilda, Initial residual = 0.000787331, Final residual = 4.54241e-05, No Iterations 4
ExecutionTime = 11.53 s  ClockTime = 11 s

Time = 115

smoothSolver:  Solving for Ux, Initial residual = 0.00163142, Final residual = 0.000103542, No Iterations 4
smoothSolver:  Solving for Uy, Initial residual = 0.000621334, Final residual = 4.15955e-05, No Iterations 4
GAMG:  Solving for p, Initial residual = 0.00573346, Final residual = 0.000560401, No Iterations 1
time step continuity errors : sum local = 0.00119017, global = -1.92034e-05, cumulative = 0.113976
smoothSolver:  Solving for nuTilda, Initial residual = 0.000778705, Final residual = 4.49895e-05, No Iterations 4
ExecutionTime = 11.55 s  ClockTime = 11 s

Time = 116

smoothSolver:  Solving for Ux, Initial residual = 0.00159784, Final residual = 0.000101465, No Iterations 4
smoothSolver:  Solving for Uy, Initial residual = 0.000613306, Final residual = 4.09702e-05, No Iterations 4
GAMG:  Solving for p, Initial residual = 0.00568889, Final residual = 0.000307551, No Iterations 2
time step continuity errors : sum local = 0.000654473, global = 4.12609e-05, cumulative = 0.114017
smoothSolver:  Solving for nuTilda, Initial residual = 0.000770078, Final residual = 4.45535e-05, No Iterations 4
ExecutionTime = 11.56 s  ClockTime = 11 s

Time = 117

smoothSolver:  Solving for Ux, Initial residual = 0.00157273, Final residual = 0.000100014, No Iterations 4
smoothSolver:  Solving for Uy, Initial residual = 0.000605276, Final residual = 4.03192e-05, No Iterations 4
GAMG:  Solving for p, Initial residual = 0.00562248, Final residual = 0.000474528, No Iterations 1
time step continuity errors : sum local = 0.00101319, global = -2.33062e-05, cumulative = 0.113994
smoothSolver:  Solving for nuTilda, Initial residual = 0.00076171, Final residual = 4.41199e-05, No Iterations 4
ExecutionTime = 11.59 s  ClockTime = 11 s

Time = 118

smoothSolver:  Solving for Ux, Initial residual = 0.0015399, Final residual = 9.79902e-05, No Iterations 4
smoothSolver:  Solving for Uy, Initial residual = 0.000597556, Final residual = 3.97182e-05, No Iterations 4
GAMG:  Solving for p, Initial residual = 0.00556138, Final residual = 0.000472021, No Iterations 1
time step continuity errors : sum local = 0.00100944, global = -2.58671e-05, cumulative = 0.113968
smoothSolver:  Solving for nuTilda, Initial residual = 0.000753371, Final residual = 4.36933e-05, No Iterations 4
ExecutionTime = 11.6 s  ClockTime = 11 s

Time = 119

smoothSolver:  Solving for Ux, Initial residual = 0.00150771, Final residual = 9.60046e-05, No Iterations 4
smoothSolver:  Solving for Uy, Initial residual = 0.000589791, Final residual = 3.91082e-05, No Iterations 4
GAMG:  Solving for p, Initial residual = 0.00549839, Final residual = 0.000508941, No Iterations 1
time step continuity errors : sum local = 0.00108999, global = -3.84459e-05, cumulative = 0.113929
smoothSolver:  Solving for nuTilda, Initial residual = 0.000745018, Final residual = 4.32796e-05, No Iterations 4
ExecutionTime = 11.62 s  ClockTime = 11 s

Time = 120

smoothSolver:  Solving for Ux, Initial residual = 0.00147732, Final residual = 9.41428e-05, No Iterations 4
smoothSolver:  Solving for Uy, Initial residual = 0.000582278, Final residual = 3.85256e-05, No Iterations 4
GAMG:  Solving for p, Initial residual = 0.00545143, Final residual = 0.000289072, No Iterations 2
time step continuity errors : sum local = 0.00062003, global = 4.08295e-05, cumulative = 0.11397
smoothSolver:  Solving for nuTilda, Initial residual = 0.00073705, Final residual = 4.28899e-05, No Iterations 4
ExecutionTime = 11.63 s  ClockTime = 11 s

Time = 121

smoothSolver:  Solving for Ux, Initial residual = 0.0014551, Final residual = 9.28946e-05, No Iterations 4
smoothSolver:  Solving for Uy, Initial residual = 0.000576916, Final residual = 3.81063e-05, No Iterations 4
GAMG:  Solving for p, Initial residual = 0.00538961, Final residual = 0.000467988, No Iterations 1
time step continuity errors : sum local = 0.00100609, global = -3.15173e-05, cumulative = 0.113939
smoothSolver:  Solving for nuTilda, Initial residual = 0.000729246, Final residual = 4.24958e-05, No Iterations 4
ExecutionTime = 11.65 s  ClockTime = 11 s

Time = 122

smoothSolver:  Solving for Ux, Initial residual = 0.00142648, Final residual = 9.11247e-05, No Iterations 4
smoothSolver:  Solving for Uy, Initial residual = 0.000570225, Final residual = 3.76285e-05, No Iterations 4
GAMG:  Solving for p, Initial residual = 0.00533584, Final residual = 0.000483217, No Iterations 1
time step continuity errors : sum local = 0.00104027, global = -3.22893e-05, cumulative = 0.113906
smoothSolver:  Solving for nuTilda, Initial residual = 0.00072158, Final residual = 4.20998e-05, No Iterations 4
ExecutionTime = 11.67 s  ClockTime = 11 s

Time = 123

smoothSolver:  Solving for Ux, Initial residual = 0.00139872, Final residual = 8.93971e-05, No Iterations 4
smoothSolver:  Solving for Uy, Initial residual = 0.000563608, Final residual = 3.71621e-05, No Iterations 4
GAMG:  Solving for p, Initial residual = 0.0052881, Final residual = 0.000526357, No Iterations 1
time step continuity errors : sum local = 0.00113466, global = -4.71296e-05, cumulative = 0.113859
smoothSolver:  Solving for nuTilda, Initial residual = 0.000714082, Final residual = 4.17146e-05, No Iterations 4
ExecutionTime = 11.69 s  ClockTime = 11 s

Time = 124

smoothSolver:  Solving for Ux, Initial residual = 0.00137251, Final residual = 8.7759e-05, No Iterations 4
smoothSolver:  Solving for Uy, Initial residual = 0.000557105, Final residual = 3.67177e-05, No Iterations 4
GAMG:  Solving for p, Initial residual = 0.00524982, Final residual = 0.0002954, No Iterations 2
time step continuity errors : sum local = 0.000637685, global = 4.54162e-05, cumulative = 0.113905
smoothSolver:  Solving for nuTilda, Initial residual = 0.000706887, Final residual = 4.13487e-05, No Iterations 4
ExecutionTime = 11.7 s  ClockTime = 11 s

Time = 125

smoothSolver:  Solving for Ux, Initial residual = 0.00135354, Final residual = 8.66585e-05, No Iterations 4
smoothSolver:  Solving for Uy, Initial residual = 0.000552828, Final residual = 3.64621e-05, No Iterations 4
GAMG:  Solving for p, Initial residual = 0.00517941, Final residual = 0.000439418, No Iterations 1
time step continuity errors : sum local = 0.000950617, global = -3.12081e-05, cumulative = 0.113873
smoothSolver:  Solving for nuTilda, Initial residual = 0.000699759, Final residual = 4.09804e-05, No Iterations 4
ExecutionTime = 11.72 s  ClockTime = 11 s

Time = 126

smoothSolver:  Solving for Ux, Initial residual = 0.00132736, Final residual = 8.50177e-05, No Iterations 4
smoothSolver:  Solving for Uy, Initial residual = 0.000545775, Final residual = 3.59911e-05, No Iterations 4
GAMG:  Solving for p, Initial residual = 0.00511168, Final residual = 0.000432083, No Iterations 1
time step continuity errors : sum local = 0.000935913, global = -2.35112e-05, cumulative = 0.11385
smoothSolver:  Solving for nuTilda, Initial residual = 0.000692887, Final residual = 4.06258e-05, No Iterations 4
ExecutionTime = 11.73 s  ClockTime = 11 s

Time = 127

smoothSolver:  Solving for Ux, Initial residual = 0.00130138, Final residual = 8.33929e-05, No Iterations 4
smoothSolver:  Solving for Uy, Initial residual = 0.000538496, Final residual = 3.54802e-05, No Iterations 4
GAMG:  Solving for p, Initial residual = 0.00504808, Final residual = 0.000464579, No Iterations 1
time step continuity errors : sum local = 0.00100751, global = -3.6922e-05, cumulative = 0.113813
smoothSolver:  Solving for nuTilda, Initial residual = 0.000685975, Final residual = 4.02911e-05, No Iterations 4
ExecutionTime = 11.75 s  ClockTime = 11 s

Time = 128

smoothSolver:  Solving for Ux, Initial residual = 0.00127667, Final residual = 8.18637e-05, No Iterations 4
smoothSolver:  Solving for Uy, Initial residual = 0.000531201, Final residual = 3.49726e-05, No Iterations 4
GAMG:  Solving for p, Initial residual = 0.0049996, Final residual = 0.000250527, No Iterations 2
time step continuity errors : sum local = 0.000544016, global = 4.5698e-05, cumulative = 0.113859
smoothSolver:  Solving for nuTilda, Initial residual = 0.000679245, Final residual = 3.99609e-05, No Iterations 4
ExecutionTime = 11.77 s  ClockTime = 11 s

Time = 129

smoothSolver:  Solving for Ux, Initial residual = 0.0012587, Final residual = 8.08339e-05, No Iterations 4
smoothSolver:  Solving for Uy, Initial residual = 0.000524758, Final residual = 3.45273e-05, No Iterations 4
GAMG:  Solving for p, Initial residual = 0.00492925, Final residual = 0.000414174, No Iterations 1
time step continuity errors : sum local = 0.000901457, global = -4.29588e-05, cumulative = 0.113816
smoothSolver:  Solving for nuTilda, Initial residual = 0.00067248, Final residual = 3.96395e-05, No Iterations 4
ExecutionTime = 11.79 s  ClockTime = 11 s

Time = 130

smoothSolver:  Solving for Ux, Initial residual = 0.00123556, Final residual = 7.94006e-05, No Iterations 4
smoothSolver:  Solving for Uy, Initial residual = 0.000517691, Final residual = 3.40498e-05, No Iterations 4
GAMG:  Solving for p, Initial residual = 0.00487086, Final residual = 0.000425385, No Iterations 1
time step continuity errors : sum local = 0.000927038, global = -5.32957e-05, cumulative = 0.113762
smoothSolver:  Solving for nuTilda, Initial residual = 0.000666047, Final residual = 3.93383e-05, No Iterations 4
ExecutionTime = 11.8 s  ClockTime = 11 s

Time = 131

smoothSolver:  Solving for Ux, Initial residual = 0.00121321, Final residual = 7.80232e-05, No Iterations 4
smoothSolver:  Solving for Uy, Initial residual = 0.00051078, Final residual = 3.357e-05, No Iterations 4
GAMG:  Solving for p, Initial residual = 0.00482235, Final residual = 0.000468831, No Iterations 1
time step continuity errors : sum local = 0.001023, global = -7.38604e-05, cumulative = 0.113689
smoothSolver:  Solving for nuTilda, Initial residual = 0.000660172, Final residual = 3.90598e-05, No Iterations 4
ExecutionTime = 11.82 s  ClockTime = 11 s

Time = 132

smoothSolver:  Solving for Ux, Initial residual = 0.00119243, Final residual = 7.67439e-05, No Iterations 4
smoothSolver:  Solving for Uy, Initial residual = 0.000504095, Final residual = 3.31127e-05, No Iterations 4
GAMG:  Solving for p, Initial residual = 0.00478433, Final residual = 0.000268612, No Iterations 2
time step continuity errors : sum local = 0.000586905, global = 5.20682e-05, cumulative = 0.113741
smoothSolver:  Solving for nuTilda, Initial residual = 0.000654731, Final residual = 3.87834e-05, No Iterations 4
ExecutionTime = 11.83 s  ClockTime = 11 s

Time = 133

smoothSolver:  Solving for Ux, Initial residual = 0.00117796, Final residual = 7.59614e-05, No Iterations 4
smoothSolver:  Solving for Uy, Initial residual = 0.000499078, Final residual = 3.27476e-05, No Iterations 4
GAMG:  Solving for p, Initial residual = 0.0047124, Final residual = 0.000400836, No Iterations 1
time step continuity errors : sum local = 0.000877733, global = -4.38388e-05, cumulative = 0.113697
smoothSolver:  Solving for nuTilda, Initial residual = 0.000649357, Final residual = 3.85306e-05, No Iterations 4
ExecutionTime = 11.86 s  ClockTime = 12 s

Time = 134

smoothSolver:  Solving for Ux, Initial residual = 0.00115695, Final residual = 7.46494e-05, No Iterations 4
[...]
ExecutionTime = 17.59 s  ClockTime = 17 s

Time = 467

smoothSolver:  Solving for Ux, Initial residual = 0.000254929, Final residual = 1.8723e-05, No Iterations 4
smoothSolver:  Solving for Uy, Initial residual = 0.000309322, Final residual = 2.21505e-05, No Iterations 4
GAMG:  Solving for p, Initial residual = 0.00109507, Final residual = 9.27116e-05, No Iterations 2
time step continuity errors : sum local = 0.000250293, global = 3.85229e-05, cumulative = 0.112413
smoothSolver:  Solving for nuTilda, Initial residual = 0.000222626, Final residual = 1.42492e-05, No Iterations 4
ExecutionTime = 17.6 s  ClockTime = 17 s

Time = 468

smoothSolver:  Solving for Ux, Initial residual = 0.000254872, Final residual = 1.87238e-05, No Iterations 4
smoothSolver:  Solving for Uy, Initial residual = 0.000309889, Final residual = 2.21918e-05, No Iterations 4
GAMG:  Solving for p, Initial residual = 0.00109582, Final residual = 9.28914e-05, No Iterations 2
time step continuity errors : sum local = 0.000250904, global = 3.84601e-05, cumulative = 0.112451
smoothSolver:  Solving for nuTilda, Initial residual = 0.000223115, Final residual = 1.42863e-05, No Iterations 4
ExecutionTime = 17.62 s  ClockTime = 17 s

Time = 469

smoothSolver:  Solving for Ux, Initial residual = 0.00025482, Final residual = 1.87249e-05, No Iterations 4
smoothSolver:  Solving for Uy, Initial residual = 0.00031046, Final residual = 2.22336e-05, No Iterations 4
GAMG:  Solving for p, Initial residual = 0.0010967, Final residual = 9.30731e-05, No Iterations 2
time step continuity errors : sum local = 0.000251519, global = 3.84989e-05, cumulative = 0.112489
smoothSolver:  Solving for nuTilda, Initial residual = 0.000223631, Final residual = 1.43259e-05, No Iterations 4
ExecutionTime = 17.64 s  ClockTime = 17 s

Time = 470

smoothSolver:  Solving for Ux, Initial residual = 0.000254775, Final residual = 1.87263e-05, No Iterations 4
smoothSolver:  Solving for Uy, Initial residual = 0.00031104, Final residual = 2.22761e-05, No Iterations 4
GAMG:  Solving for p, Initial residual = 0.00109717, Final residual = 9.3202e-05, No Iterations 2
time step continuity errors : sum local = 0.000251991, global = 3.85915e-05, cumulative = 0.112528
smoothSolver:  Solving for nuTilda, Initial residual = 0.000224217, Final residual = 1.43702e-05, No Iterations 4
ExecutionTime = 17.66 s  ClockTime = 17 s

Time = 471

smoothSolver:  Solving for Ux, Initial residual = 0.000254732, Final residual = 1.87278e-05, No Iterations 4
smoothSolver:  Solving for Uy, Initial residual = 0.000311621, Final residual = 2.23189e-05, No Iterations 4
GAMG:  Solving for p, Initial residual = 0.00109804, Final residual = 9.32842e-05, No Iterations 2
time step continuity errors : sum local = 0.000252337, global = 3.86614e-05, cumulative = 0.112567
smoothSolver:  Solving for nuTilda, Initial residual = 0.000224896, Final residual = 1.44173e-05, No Iterations 4
ExecutionTime = 17.68 s  ClockTime = 17 s

Time = 472

smoothSolver:  Solving for Ux, Initial residual = 0.000254691, Final residual = 1.87293e-05, No Iterations 4
smoothSolver:  Solving for Uy, Initial residual = 0.000312198, Final residual = 2.23615e-05, No Iterations 4
GAMG:  Solving for p, Initial residual = 0.00109929, Final residual = 9.33483e-05, No Iterations 2
time step continuity errors : sum local = 0.000252634, global = 3.87014e-05, cumulative = 0.112605
smoothSolver:  Solving for nuTilda, Initial residual = 0.000225517, Final residual = 1.44599e-05, No Iterations 4
ExecutionTime = 17.69 s  ClockTime = 17 s

Time = 473

smoothSolver:  Solving for Ux, Initial residual = 0.000254651, Final residual = 1.87307e-05, No Iterations 4
smoothSolver:  Solving for Uy, Initial residual = 0.000312765, Final residual = 2.24033e-05, No Iterations 4
GAMG:  Solving for p, Initial residual = 0.00109911, Final residual = 9.34118e-05, No Iterations 2
time step continuity errors : sum local = 0.000252929, global = 3.87703e-05, cumulative = 0.112644
smoothSolver:  Solving for nuTilda, Initial residual = 0.000226072, Final residual = 1.4497e-05, No Iterations 4
ExecutionTime = 17.71 s  ClockTime = 17 s

Time = 474

smoothSolver:  Solving for Ux, Initial residual = 0.000254612, Final residual = 1.8732e-05, No Iterations 4
smoothSolver:  Solving for Uy, Initial residual = 0.000313317, Final residual = 2.2444e-05, No Iterations 4
GAMG:  Solving for p, Initial residual = 0.00109927, Final residual = 9.34819e-05, No Iterations 2
time step continuity errors : sum local = 0.000253243, global = 3.88402e-05, cumulative = 0.112683
smoothSolver:  Solving for nuTilda, Initial residual = 0.000226525, Final residual = 1.45336e-05, No Iterations 4
ExecutionTime = 17.73 s  ClockTime = 17 s

Time = 475

smoothSolver:  Solving for Ux, Initial residual = 0.000254571, Final residual = 1.87333e-05, No Iterations 4
smoothSolver:  Solving for Uy, Initial residual = 0.000313852, Final residual = 2.24836e-05, No Iterations 4
GAMG:  Solving for p, Initial residual = 0.00109957, Final residual = 9.35758e-05, No Iterations 2
time step continuity errors : sum local = 0.000253622, global = 3.89035e-05, cumulative = 0.112722
smoothSolver:  Solving for nuTilda, Initial residual = 0.00022692, Final residual = 1.45722e-05, No Iterations 4
ExecutionTime = 17.75 s  ClockTime = 17 s

Time = 476

smoothSolver:  Solving for Ux, Initial residual = 0.000254533, Final residual = 1.87346e-05, No Iterations 4
smoothSolver:  Solving for Uy, Initial residual = 0.000314375, Final residual = 2.25223e-05, No Iterations 4
GAMG:  Solving for p, Initial residual = 0.00110017, Final residual = 9.36957e-05, No Iterations 2
time step continuity errors : sum local = 0.000254071, global = 3.89676e-05, cumulative = 0.112761
smoothSolver:  Solving for nuTilda, Initial residual = 0.000227419, Final residual = 1.46117e-05, No Iterations 4
ExecutionTime = 17.77 s  ClockTime = 17 s

Time = 477

smoothSolver:  Solving for Ux, Initial residual = 0.000254499, Final residual = 1.8736e-05, No Iterations 4
smoothSolver:  Solving for Uy, Initial residual = 0.000314893, Final residual = 2.25608e-05, No Iterations 4
GAMG:  Solving for p, Initial residual = 0.00110101, Final residual = 9.383e-05, No Iterations 2
time step continuity errors : sum local = 0.000254561, global = 3.90247e-05, cumulative = 0.1128
smoothSolver:  Solving for nuTilda, Initial residual = 0.000227954, Final residual = 1.4652e-05, No Iterations 4
ExecutionTime = 17.78 s  ClockTime = 17 s

Time = 478

smoothSolver:  Solving for Ux, Initial residual = 0.000254469, Final residual = 1.87375e-05, No Iterations 4
smoothSolver:  Solving for Uy, Initial residual = 0.000315415, Final residual = 2.25997e-05, No Iterations 4
GAMG:  Solving for p, Initial residual = 0.00110187, Final residual = 9.39629e-05, No Iterations 2
time step continuity errors : sum local = 0.000255047, global = 3.90612e-05, cumulative = 0.112839
smoothSolver:  Solving for nuTilda, Initial residual = 0.000228488, Final residual = 1.46929e-05, No Iterations 4
ExecutionTime = 17.8 s  ClockTime = 17 s

Time = 479

smoothSolver:  Solving for Ux, Initial residual = 0.00025444, Final residual = 1.8739e-05, No Iterations 4
smoothSolver:  Solving for Uy, Initial residual = 0.000315941, Final residual = 2.26391e-05, No Iterations 4
GAMG:  Solving for p, Initial residual = 0.00110279, Final residual = 9.40839e-05, No Iterations 2
time step continuity errors : sum local = 0.0002555, global = 3.90688e-05, cumulative = 0.112878
smoothSolver:  Solving for nuTilda, Initial residual = 0.000229021, Final residual = 1.4734e-05, No Iterations 4
ExecutionTime = 17.81 s  ClockTime = 17 s

Time = 480

smoothSolver:  Solving for Ux, Initial residual = 0.000254413, Final residual = 1.87404e-05, No Iterations 4
smoothSolver:  Solving for Uy, Initial residual = 0.000316468, Final residual = 2.2679e-05, No Iterations 4
GAMG:  Solving for p, Initial residual = 0.00110369, Final residual = 9.41893e-05, No Iterations 2
time step continuity errors : sum local = 0.000255912, global = 3.90538e-05, cumulative = 0.112917
smoothSolver:  Solving for nuTilda, Initial residual = 0.000229547, Final residual = 1.47751e-05, No Iterations 4
ExecutionTime = 17.84 s  ClockTime = 18 s

Time = 481

smoothSolver:  Solving for Ux, Initial residual = 0.00025439, Final residual = 1.87418e-05, No Iterations 4
smoothSolver:  Solving for Uy, Initial residual = 0.000316991, Final residual = 2.27189e-05, No Iterations 4
GAMG:  Solving for p, Initial residual = 0.00110455, Final residual = 9.42804e-05, No Iterations 2
time step continuity errors : sum local = 0.000256285, global = 3.90309e-05, cumulative = 0.112956
smoothSolver:  Solving for nuTilda, Initial residual = 0.000230053, Final residual = 1.48153e-05, No Iterations 4
ExecutionTime = 17.85 s  ClockTime = 18 s

Time = 482

smoothSolver:  Solving for Ux, Initial residual = 0.000254367, Final residual = 1.87431e-05, No Iterations 4
smoothSolver:  Solving for Uy, Initial residual = 0.000317509, Final residual = 2.27583e-05, No Iterations 4
GAMG:  Solving for p, Initial residual = 0.00110367, Final residual = 9.43329e-05, No Iterations 2
time step continuity errors : sum local = 0.000256552, global = 3.90587e-05, cumulative = 0.112995
smoothSolver:  Solving for nuTilda, Initial residual = 0.000230521, Final residual = 1.48534e-05, No Iterations 4
ExecutionTime = 17.87 s  ClockTime = 18 s

Time = 483

smoothSolver:  Solving for Ux, Initial residual = 0.000254348, Final residual = 1.87442e-05, No Iterations 4
smoothSolver:  Solving for Uy, Initial residual = 0.000318019, Final residual = 2.27971e-05, No Iterations 4
GAMG:  Solving for p, Initial residual = 0.00110403, Final residual = 9.43853e-05, No Iterations 2
time step continuity errors : sum local = 0.00025682, global = 3.90549e-05, cumulative = 0.113034
smoothSolver:  Solving for nuTilda, Initial residual = 0.000230952, Final residual = 1.48895e-05, No Iterations 4
ExecutionTime = 17.88 s  ClockTime = 18 s

Time = 484

smoothSolver:  Solving for Ux, Initial residual = 0.00025433, Final residual = 1.8745e-05, No Iterations 4
smoothSolver:  Solving for Uy, Initial residual = 0.000318525, Final residual = 2.28353e-05, No Iterations 4
GAMG:  Solving for p, Initial residual = 0.0011042, Final residual = 9.44648e-05, No Iterations 2
time step continuity errors : sum local = 0.000257162, global = 3.90645e-05, cumulative = 0.113073
smoothSolver:  Solving for nuTilda, Initial residual = 0.000231457, Final residual = 1.49264e-05, No Iterations 4
ExecutionTime = 17.9 s  ClockTime = 18 s

Time = 485

smoothSolver:  Solving for Ux, Initial residual = 0.000254311, Final residual = 1.87456e-05, No Iterations 4
smoothSolver:  Solving for Uy, Initial residual = 0.000319031, Final residual = 2.28735e-05, No Iterations 4
GAMG:  Solving for p, Initial residual = 0.00110468, Final residual = 9.45799e-05, No Iterations 2
time step continuity errors : sum local = 0.000257601, global = 3.91053e-05, cumulative = 0.113112
smoothSolver:  Solving for nuTilda, Initial residual = 0.000231953, Final residual = 1.49627e-05, No Iterations 4
ExecutionTime = 17.92 s  ClockTime = 18 s

Time = 486

smoothSolver:  Solving for Ux, Initial residual = 0.000254296, Final residual = 1.87463e-05, No Iterations 4
smoothSolver:  Solving for Uy, Initial residual = 0.000319542, Final residual = 2.29122e-05, No Iterations 4
GAMG:  Solving for p, Initial residual = 0.00110532, Final residual = 9.47177e-05, No Iterations 2
time step continuity errors : sum local = 0.000258103, global = 3.91576e-05, cumulative = 0.113152
smoothSolver:  Solving for nuTilda, Initial residual = 0.000232464, Final residual = 1.49999e-05, No Iterations 4
ExecutionTime = 17.94 s  ClockTime = 18 s

Time = 487

smoothSolver:  Solving for Ux, Initial residual = 0.000254285, Final residual = 1.8747e-05, No Iterations 4
smoothSolver:  Solving for Uy, Initial residual = 0.000320059, Final residual = 2.29515e-05, No Iterations 4
GAMG:  Solving for p, Initial residual = 0.00110597, Final residual = 9.48526e-05, No Iterations 2
time step continuity errors : sum local = 0.000258597, global = 3.91943e-05, cumulative = 0.113191
smoothSolver:  Solving for nuTilda, Initial residual = 0.000232952, Final residual = 1.5036e-05, No Iterations 4
ExecutionTime = 17.96 s  ClockTime = 18 s

Time = 488

smoothSolver:  Solving for Ux, Initial residual = 0.00025428, Final residual = 1.8748e-05, No Iterations 4
smoothSolver:  Solving for Uy, Initial residual = 0.000320581, Final residual = 2.29913e-05, No Iterations 4
GAMG:  Solving for p, Initial residual = 0.0011066, Final residual = 9.49683e-05, No Iterations 2
time step continuity errors : sum local = 0.000259039, global = 3.9202e-05, cumulative = 0.11323
smoothSolver:  Solving for nuTilda, Initial residual = 0.000233421, Final residual = 1.507e-05, No Iterations 4
ExecutionTime = 17.97 s  ClockTime = 18 s

Time = 489

smoothSolver:  Solving for Ux, Initial residual = 0.000254279, Final residual = 1.87491e-05, No Iterations 4
smoothSolver:  Solving for Uy, Initial residual = 0.000321105, Final residual = 2.30313e-05, No Iterations 4
GAMG:  Solving for p, Initial residual = 0.00110717, Final residual = 9.50608e-05, No Iterations 2
time step continuity errors : sum local = 0.000259417, global = 3.91843e-05, cumulative = 0.113269
smoothSolver:  Solving for nuTilda, Initial residual = 0.000233899, Final residual = 1.51032e-05, No Iterations 4
ExecutionTime = 17.99 s  ClockTime = 18 s

Time = 490

smoothSolver:  Solving for Ux, Initial residual = 0.000254284, Final residual = 1.87503e-05, No Iterations 4
smoothSolver:  Solving for Uy, Initial residual = 0.000321626, Final residual = 2.30711e-05, No Iterations 4
GAMG:  Solving for p, Initial residual = 0.00110774, Final residual = 9.51387e-05, No Iterations 2
time step continuity errors : sum local = 0.000259756, global = 3.91591e-05, cumulative = 0.113308
smoothSolver:  Solving for nuTilda, Initial residual = 0.000234364, Final residual = 1.51349e-05, No Iterations 4
ExecutionTime = 18.01 s  ClockTime = 18 s

Time = 491

smoothSolver:  Solving for Ux, Initial residual = 0.000254293, Final residual = 1.87517e-05, No Iterations 4
smoothSolver:  Solving for Uy, Initial residual = 0.000322144, Final residual = 2.31106e-05, No Iterations 4
GAMG:  Solving for p, Initial residual = 0.00110826, Final residual = 9.52107e-05, No Iterations 2
time step continuity errors : sum local = 0.000260079, global = 3.91433e-05, cumulative = 0.113347
smoothSolver:  Solving for nuTilda, Initial residual = 0.000234718, Final residual = 1.51672e-05, No Iterations 4
ExecutionTime = 18.03 s  ClockTime = 18 s

Time = 492

smoothSolver:  Solving for Ux, Initial residual = 0.000254307, Final residual = 1.87534e-05, No Iterations 4
smoothSolver:  Solving for Uy, Initial residual = 0.000322661, Final residual = 2.315e-05, No Iterations 4
GAMG:  Solving for p, Initial residual = 0.00110805, Final residual = 9.52516e-05, No Iterations 2
time step continuity errors : sum local = 0.000260317, global = 3.91495e-05, cumulative = 0.113387
smoothSolver:  Solving for nuTilda, Initial residual = 0.000235174, Final residual = 1.51982e-05, No Iterations 4
ExecutionTime = 18.05 s  ClockTime = 18 s

Time = 493

smoothSolver:  Solving for Ux, Initial residual = 0.000254326, Final residual = 1.87557e-05, No Iterations 4
smoothSolver:  Solving for Uy, Initial residual = 0.000323179, Final residual = 2.31893e-05, No Iterations 4
GAMG:  Solving for p, Initial residual = 0.00110837, Final residual = 9.53027e-05, No Iterations 2
time step continuity errors : sum local = 0.000260583, global = 3.91734e-05, cumulative = 0.113426
smoothSolver:  Solving for nuTilda, Initial residual = 0.000235642, Final residual = 1.5225e-05, No Iterations 4
ExecutionTime = 18.06 s  ClockTime = 18 s

Time = 494

smoothSolver:  Solving for Ux, Initial residual = 0.000254351, Final residual = 1.87581e-05, No Iterations 4
smoothSolver:  Solving for Uy, Initial residual = 0.000323707, Final residual = 2.32291e-05, No Iterations 4
GAMG:  Solving for p, Initial residual = 0.00110895, Final residual = 9.53798e-05, No Iterations 2
time step continuity errors : sum local = 0.00026092, global = 3.92047e-05, cumulative = 0.113465
smoothSolver:  Solving for nuTilda, Initial residual = 0.000236023, Final residual = 1.52476e-05, No Iterations 4
ExecutionTime = 18.08 s  ClockTime = 18 s

Time = 495

smoothSolver:  Solving for Ux, Initial residual = 0.000254382, Final residual = 1.87609e-05, No Iterations 4
smoothSolver:  Solving for Uy, Initial residual = 0.000324245, Final residual = 2.32696e-05, No Iterations 4
GAMG:  Solving for p, Initial residual = 0.00110966, Final residual = 9.54855e-05, No Iterations 2
time step continuity errors : sum local = 0.000261335, global = 3.92337e-05, cumulative = 0.113504
smoothSolver:  Solving for nuTilda, Initial residual = 0.000236251, Final residual = 1.52659e-05, No Iterations 4
ExecutionTime = 18.09 s  ClockTime = 18 s

Time = 496

smoothSolver:  Solving for Ux, Initial residual = 0.00025442, Final residual = 1.87639e-05, No Iterations 4
smoothSolver:  Solving for Uy, Initial residual = 0.000324792, Final residual = 2.33108e-05, No Iterations 4
GAMG:  Solving for p, Initial residual = 0.00111035, Final residual = 9.56046e-05, No Iterations 2
time step continuity errors : sum local = 0.000261787, global = 3.92535e-05, cumulative = 0.113543
smoothSolver:  Solving for nuTilda, Initial residual = 0.000236642, Final residual = 1.52929e-05, No Iterations 4
ExecutionTime = 18.11 s  ClockTime = 18 s

Time = 497

smoothSolver:  Solving for Ux, Initial residual = 0.000254465, Final residual = 1.87673e-05, No Iterations 4
smoothSolver:  Solving for Uy, Initial residual = 0.000325348, Final residual = 2.33526e-05, No Iterations 4
GAMG:  Solving for p, Initial residual = 0.00111104, Final residual = 9.57229e-05, No Iterations 2
time step continuity errors : sum local = 0.000262237, global = 3.92658e-05, cumulative = 0.113583
smoothSolver:  Solving for nuTilda, Initial residual = 0.000237071, Final residual = 1.53158e-05, No Iterations 4
ExecutionTime = 18.13 s  ClockTime = 18 s

Time = 498

smoothSolver:  Solving for Ux, Initial residual = 0.000254516, Final residual = 1.87711e-05, No Iterations 4
smoothSolver:  Solving for Uy, Initial residual = 0.00032591, Final residual = 2.33946e-05, No Iterations 4
GAMG:  Solving for p, Initial residual = 0.00111177, Final residual = 9.58361e-05, No Iterations 2
time step continuity errors : sum local = 0.000262674, global = 3.92799e-05, cumulative = 0.113622
smoothSolver:  Solving for nuTilda, Initial residual = 0.000237564, Final residual = 1.53522e-05, No Iterations 4
ExecutionTime = 18.15 s  ClockTime = 18 s

Time = 499

smoothSolver:  Solving for Ux, Initial residual = 0.000254572, Final residual = 1.87751e-05, No Iterations 4
smoothSolver:  Solving for Uy, Initial residual = 0.000326472, Final residual = 2.34366e-05, No Iterations 4
GAMG:  Solving for p, Initial residual = 0.00111245, Final residual = 9.59496e-05, No Iterations 2
time step continuity errors : sum local = 0.000263112, global = 3.93069e-05, cumulative = 0.113661
smoothSolver:  Solving for nuTilda, Initial residual = 0.000238146, Final residual = 1.53982e-05, No Iterations 4
ExecutionTime = 18.17 s  ClockTime = 18 s

Time = 500

smoothSolver:  Solving for Ux, Initial residual = 0.000254628, Final residual = 1.87791e-05, No Iterations 4
smoothSolver:  Solving for Uy, Initial residual = 0.000327036, Final residual = 2.34784e-05, No Iterations 4
GAMG:  Solving for p, Initial residual = 0.00111242, Final residual = 9.60638e-05, No Iterations 2
time step continuity errors : sum local = 0.000263551, global = 3.93877e-05, cumulative = 0.113701
smoothSolver:  Solving for nuTilda, Initial residual = 0.000238831, Final residual = 1.54509e-05, No Iterations 4
ExecutionTime = 18.18 s  ClockTime = 18 s

End

